/*---------------------------------------------------------------------------*\
  =========                 |
  \\      /  F ield         | OpenFOAM: The Open Source CFD Toolbox
   \\    /   O peration     | Website:  https://openfoam.org
    \\  /    A nd           | Version:  10
     \\/     M anipulation  |
\*---------------------------------------------------------------------------*/
Build  : 10-c4cf895ad8fa
Exec   : refineMesh -dict refineMeshDict.tier6 -overwrite
Date   : Jan 29 2024
Time   : 21:22:54
Host   : "chan-X570-AORUS-ELITE"
PID    : 8667
I/O    : uncollated
Case   : /home/chan/OpenFOAM/chan-10/run/tutorials/mesh/refineMesh/refineFieldDirs
nProcs : 1
sigFpe : Enabling floating point exception trapping (FOAM_SIGFPE).
fileModificationChecking : Monitoring run-time modified files using timeStampMaster (fileModificationSkew 10)
allowSystemOperations : Allowing user-supplied system call operations

// * * * * * * * * * * * * * * * * * * * * * * * * * * * * * * * * * * * * * //
Create time

Create polyMesh for time = 0

Mesh edge statistics:
    x aligned :  number:1567	minLen:0.034117207	maxLen:1.4216329
    y aligned :  number:1696	minLen:0.034463217	maxLen:1.435967
    z aligned :  number:18128	minLen:0.042327798	maxLen:1.3473849
    other     :  number:30934	minLen:0.034117206	maxLen:1.435967

Reading "refineMeshDict.tier6"

Refining according to "/home/chan/OpenFOAM/chan-10/run/tutorials/mesh/refineMesh/refineFieldDirs/system"

Read 15040 cells from cellSet "constant/polyMesh/sets/tier6"

Global Coordinate system:
     e3 : (0 0 1)
     e1   : (1 0 0)
     e2   : (0 1 0)

--> FOAM Warning : 
    From function void Foam::cellCuts::setFromCellCutter(const Foam::cellLooper&, const Foam::List<Foam::refineCell>&)
    in file meshCut/cellCuts/cellCuts.C at line 2393
    Found loop on cell 1 that resulted in an unexpected bad cut.
    Suggestions:
      - Turn on the debug switch for 'cellCuts' to get geometry files that identify this cell.
      - Also keep in mind to check the defined reference directions, as these are most likely the origin of the problem.

--> FOAM Warning : 
    From function void Foam::cellCuts::setFromCellCutter(const Foam::cellLooper&, const Foam::List<Foam::refineCell>&)
    in file meshCut/cellCuts/cellCuts.C at line 2393
    Found loop on cell 3 that resulted in an unexpected bad cut.
    Suggestions:
      - Turn on the debug switch for 'cellCuts' to get geometry files that identify this cell.
      - Also keep in mind to check the defined reference directions, as these are most likely the origin of the problem.

--> FOAM Warning : 
    From function void Foam::cellCuts::setFromCellCutter(const Foam::cellLooper&, const Foam::List<Foam::refineCell>&)
    in file meshCut/cellCuts/cellCuts.C at line 2393
    Found loop on cell 6 that resulted in an unexpected bad cut.
    Suggestions:
      - Turn on the debug switch for 'cellCuts' to get geometry files that identify this cell.
      - Also keep in mind to check the defined reference directions, as these are most likely the origin of the problem.

--> FOAM Warning : 
    From function void Foam::cellCuts::setFromCellCutter(const Foam::cellLooper&, const Foam::List<Foam::refineCell>&)
    in file meshCut/cellCuts/cellCuts.C at line 2393
    Found loop on cell 48 that resulted in an unexpected bad cut.
    Suggestions:
      - Turn on the debug switch for 'cellCuts' to get geometry files that identify this cell.
      - Also keep in mind to check the defined reference directions, as these are most likely the origin of the problem.

--> FOAM Warning : 
    From function void Foam::cellCuts::setFromCellCutter(const Foam::cellLooper&, const Foam::List<Foam::refineCell>&)
    in file meshCut/cellCuts/cellCuts.C at line 2393
    Found loop on cell 50 that resulted in an unexpected bad cut.
    Suggestions:
      - Turn on the debug switch for 'cellCuts' to get geometry files that identify this cell.
      - Also keep in mind to check the defined reference directions, as these are most likely the origin of the problem.

--> FOAM Warning : 
    From function void Foam::cellCuts::setFromCellCutter(const Foam::cellLooper&, const Foam::List<Foam::refineCell>&)
    in file meshCut/cellCuts/cellCuts.C at line 2393
    Found loop on cell 53 that resulted in an unexpected bad cut.
    Suggestions:
      - Turn on the debug switch for 'cellCuts' to get geometry files that identify this cell.
      - Also keep in mind to check the defined reference directions, as these are most likely the origin of the problem.

--> FOAM Warning : 
    From function void Foam::cellCuts::setFromCellCutter(const Foam::cellLooper&, const Foam::List<Foam::refineCell>&)
    in file meshCut/cellCuts/cellCuts.C at line 2393
    Found loop on cell 95 that resulted in an unexpected bad cut.
    Suggestions:
      - Turn on the debug switch for 'cellCuts' to get geometry files that identify this cell.
      - Also keep in mind to check the defined reference directions, as these are most likely the origin of the problem.

--> FOAM Warning : 
    From function void Foam::cellCuts::setFromCellCutter(const Foam::cellLooper&, const Foam::List<Foam::refineCell>&)
    in file meshCut/cellCuts/cellCuts.C at line 2393
    Found loop on cell 97 that resulted in an unexpected bad cut.
    Suggestions:
      - Turn on the debug switch for 'cellCuts' to get geometry files that identify this cell.
      - Also keep in mind to check the defined reference directions, as these are most likely the origin of the problem.

--> FOAM Warning : 
    From function void Foam::cellCuts::setFromCellCutter(const Foam::cellLooper&, const Foam::List<Foam::refineCell>&)
    in file meshCut/cellCuts/cellCuts.C at line 2393
    Found loop on cell 100 that resulted in an unexpected bad cut.
    Suggestions:
      - Turn on the debug switch for 'cellCuts' to get geometry files that identify this cell.
      - Also keep in mind to check the defined reference directions, as these are most likely the origin of the problem.

--> FOAM Warning : 
    From function void Foam::cellCuts::setFromCellCutter(const Foam::cellLooper&, const Foam::List<Foam::refineCell>&)
    in file meshCut/cellCuts/cellCuts.C at line 2393
    Found loop on cell 142 that resulted in an unexpected bad cut.
    Suggestions:
      - Turn on the debug switch for 'cellCuts' to get geometry files that identify this cell.
      - Also keep in mind to check the defined reference directions, as these are most likely the origin of the problem.

--> FOAM Warning : 
    From function void Foam::cellCuts::setFromCellCutter(const Foam::cellLooper&, const Foam::List<Foam::refineCell>&)
    in file meshCut/cellCuts/cellCuts.C at line 2393
    Found loop on cell 144 that resulted in an unexpected bad cut.
    Suggestions:
      - Turn on the debug switch for 'cellCuts' to get geometry files that identify this cell.
      - Also keep in mind to check the defined reference directions, as these are most likely the origin of the problem.

--> FOAM Warning : 
    From function void Foam::cellCuts::setFromCellCutter(const Foam::cellLooper&, const Foam::List<Foam::refineCell>&)
    in file meshCut/cellCuts/cellCuts.C at line 2393
    Found loop on cell 147 that resulted in an unexpected bad cut.
    Suggestions:
      - Turn on the debug switch for 'cellCuts' to get geometry files that identify this cell.
      - Also keep in mind to check the defined reference directions, as these are most likely the origin of the problem.

--> FOAM Warning : 
    From function void Foam::cellCuts::setFromCellCutter(const Foam::cellLooper&, const Foam::List<Foam::refineCell>&)
    in file meshCut/cellCuts/cellCuts.C at line 2393
    Found loop on cell 189 that resulted in an unexpected bad cut.
    Suggestions:
      - Turn on the debug switch for 'cellCuts' to get geometry files that identify this cell.
      - Also keep in mind to check the defined reference directions, as these are most likely the origin of the problem.

--> FOAM Warning : 
    From function void Foam::cellCuts::setFromCellCutter(const Foam::cellLooper&, const Foam::List<Foam::refineCell>&)
    in file meshCut/cellCuts/cellCuts.C at line 2393
    Found loop on cell 191 that resulted in an unexpected bad cut.
    Suggestions:
      - Turn on the debug switch for 'cellCuts' to get geometry files that identify this cell.
      - Also keep in mind to check the defined reference directions, as these are most likely the origin of the problem.

--> FOAM Warning : 
    From function void Foam::cellCuts::setFromCellCutter(const Foam::cellLooper&, const Foam::List<Foam::refineCell>&)
    in file meshCut/cellCuts/cellCuts.C at line 2393
    Found loop on cell 194 that resulted in an unexpected bad cut.
    Suggestions:
      - Turn on the debug switch for 'cellCuts' to get geometry files that identify this cell.
      - Also keep in mind to check the defined reference directions, as these are most likely the origin of the problem.

--> FOAM Warning : 
    From function void Foam::cellCuts::setFromCellCutter(const Foam::cellLooper&, const Foam::List<Foam::refineCell>&)
    in file meshCut/cellCuts/cellCuts.C at line 2393
    Found loop on cell 236 that resulted in an unexpected bad cut.
    Suggestions:
      - Turn on the debug switch for 'cellCuts' to get geometry files that identify this cell.
      - Also keep in mind to check the defined reference directions, as these are most likely the origin of the problem.

--> FOAM Warning : 
    From function void Foam::cellCuts::setFromCellCutter(const Foam::cellLooper&, const Foam::List<Foam::refineCell>&)
    in file meshCut/cellCuts/cellCuts.C at line 2393
    Found loop on cell 238 that resulted in an unexpected bad cut.
    Suggestions:
      - Turn on the debug switch for 'cellCuts' to get geometry files that identify this cell.
      - Also keep in mind to check the defined reference directions, as these are most likely the origin of the problem.

--> FOAM Warning : 
    From function void Foam::cellCuts::setFromCellCutter(const Foam::cellLooper&, const Foam::List<Foam::refineCell>&)
    in file meshCut/cellCuts/cellCuts.C at line 2393
    Found loop on cell 241 that resulted in an unexpected bad cut.
    Suggestions:
      - Turn on the debug switch for 'cellCuts' to get geometry files that identify this cell.
      - Also keep in mind to check the defined reference directions, as these are most likely the origin of the problem.

--> FOAM Warning : 
    From function void Foam::cellCuts::setFromCellCutter(const Foam::cellLooper&, const Foam::List<Foam::refineCell>&)
    in file meshCut/cellCuts/cellCuts.C at line 2393
    Found loop on cell 283 that resulted in an unexpected bad cut.
    Suggestions:
      - Turn on the debug switch for 'cellCuts' to get geometry files that identify this cell.
      - Also keep in mind to check the defined reference directions, as these are most likely the origin of the problem.

--> FOAM Warning : 
    From function void Foam::cellCuts::setFromCellCutter(const Foam::cellLooper&, const Foam::List<Foam::refineCell>&)
    in file meshCut/cellCuts/cellCuts.C at line 2393
    Found loop on cell 285 that resulted in an unexpected bad cut.
    Suggestions:
      - Turn on the debug switch for 'cellCuts' to get geometry files that identify this cell.
      - Also keep in mind to check the defined reference directions, as these are most likely the origin of the problem.

--> FOAM Warning : 
    From function void Foam::cellCuts::setFromCellCutter(const Foam::cellLooper&, const Foam::List<Foam::refineCell>&)
    in file meshCut/cellCuts/cellCuts.C at line 2393
    Found loop on cell 288 that resulted in an unexpected bad cut.
    Suggestions:
      - Turn on the debug switch for 'cellCuts' to get geometry files that identify this cell.
      - Also keep in mind to check the defined reference directions, as these are most likely the origin of the problem.

--> FOAM Warning : 
    From function void Foam::cellCuts::setFromCellCutter(const Foam::cellLooper&, const Foam::List<Foam::refineCell>&)
    in file meshCut/cellCuts/cellCuts.C at line 2393
    Found loop on cell 330 that resulted in an unexpected bad cut.
    Suggestions:
      - Turn on the debug switch for 'cellCuts' to get geometry files that identify this cell.
      - Also keep in mind to check the defined reference directions, as these are most likely the origin of the problem.

--> FOAM Warning : 
    From function void Foam::cellCuts::setFromCellCutter(const Foam::cellLooper&, const Foam::List<Foam::refineCell>&)
    in file meshCut/cellCuts/cellCuts.C at line 2393
    Found loop on cell 332 that resulted in an unexpected bad cut.
    Suggestions:
      - Turn on the debug switch for 'cellCuts' to get geometry files that identify this cell.
      - Also keep in mind to check the defined reference directions, as these are most likely the origin of the problem.

--> FOAM Warning : 
    From function void Foam::cellCuts::setFromCellCutter(const Foam::cellLooper&, const Foam::List<Foam::refineCell>&)
    in file meshCut/cellCuts/cellCuts.C at line 2393
    Found loop on cell 335 that resulted in an unexpected bad cut.
    Suggestions:
      - Turn on the debug switch for 'cellCuts' to get geometry files that identify this cell.
      - Also keep in mind to check the defined reference directions, as these are most likely the origin of the problem.

--> FOAM Warning : 
    From function void Foam::cellCuts::setFromCellCutter(const Foam::cellLooper&, const Foam::List<Foam::refineCell>&)
    in file meshCut/cellCuts/cellCuts.C at line 2393
    Found loop on cell 377 that resulted in an unexpected bad cut.
    Suggestions:
      - Turn on the debug switch for 'cellCuts' to get geometry files that identify this cell.
      - Also keep in mind to check the defined reference directions, as these are most likely the origin of the problem.

--> FOAM Warning : 
    From function void Foam::cellCuts::setFromCellCutter(const Foam::cellLooper&, const Foam::List<Foam::refineCell>&)
    in file meshCut/cellCuts/cellCuts.C at line 2393
    Found loop on cell 379 that resulted in an unexpected bad cut.
    Suggestions:
      - Turn on the debug switch for 'cellCuts' to get geometry files that identify this cell.
      - Also keep in mind to check the defined reference directions, as these are most likely the origin of the problem.

--> FOAM Warning : 
    From function void Foam::cellCuts::setFromCellCutter(const Foam::cellLooper&, const Foam::List<Foam::refineCell>&)
    in file meshCut/cellCuts/cellCuts.C at line 2393
    Found loop on cell 382 that resulted in an unexpected bad cut.
    Suggestions:
      - Turn on the debug switch for 'cellCuts' to get geometry files that identify this cell.
      - Also keep in mind to check the defined reference directions, as these are most likely the origin of the problem.

--> FOAM Warning : 
    From function void Foam::cellCuts::setFromCellCutter(const Foam::cellLooper&, const Foam::List<Foam::refineCell>&)
    in file meshCut/cellCuts/cellCuts.C at line 2393
    Found loop on cell 424 that resulted in an unexpected bad cut.
    Suggestions:
      - Turn on the debug switch for 'cellCuts' to get geometry files that identify this cell.
      - Also keep in mind to check the defined reference directions, as these are most likely the origin of the problem.

--> FOAM Warning : 
    From function void Foam::cellCuts::setFromCellCutter(const Foam::cellLooper&, const Foam::List<Foam::refineCell>&)
    in file meshCut/cellCuts/cellCuts.C at line 2393
    Found loop on cell 426 that resulted in an unexpected bad cut.
    Suggestions:
      - Turn on the debug switch for 'cellCuts' to get geometry files that identify this cell.
      - Also keep in mind to check the defined reference directions, as these are most likely the origin of the problem.

--> FOAM Warning : 
    From function void Foam::cellCuts::setFromCellCutter(const Foam::cellLooper&, const Foam::List<Foam::refineCell>&)
    in file meshCut/cellCuts/cellCuts.C at line 2393
    Found loop on cell 429 that resulted in an unexpected bad cut.
    Suggestions:
      - Turn on the debug switch for 'cellCuts' to get geometry files that identify this cell.
      - Also keep in mind to check the defined reference directions, as these are most likely the origin of the problem.

--> FOAM Warning : 
    From function void Foam::cellCuts::setFromCellCutter(const Foam::cellLooper&, const Foam::List<Foam::refineCell>&)
    in file meshCut/cellCuts/cellCuts.C at line 2393
    Found loop on cell 471 that resulted in an unexpected bad cut.
    Suggestions:
      - Turn on the debug switch for 'cellCuts' to get geometry files that identify this cell.
      - Also keep in mind to check the defined reference directions, as these are most likely the origin of the problem.

--> FOAM Warning : 
    From function void Foam::cellCuts::setFromCellCutter(const Foam::cellLooper&, const Foam::List<Foam::refineCell>&)
    in file meshCut/cellCuts/cellCuts.C at line 2393
    Found loop on cell 473 that resulted in an unexpected bad cut.
    Suggestions:
      - Turn on the debug switch for 'cellCuts' to get geometry files that identify this cell.
      - Also keep in mind to check the defined reference directions, as these are most likely the origin of the problem.

--> FOAM Warning : 
    From function void Foam::cellCuts::setFromCellCutter(const Foam::cellLooper&, const Foam::List<Foam::refineCell>&)
    in file meshCut/cellCuts/cellCuts.C at line 2393
    Found loop on cell 518 that resulted in an unexpected bad cut.
    Suggestions:
      - Turn on the debug switch for 'cellCuts' to get geometry files that identify this cell.
      - Also keep in mind to check the defined reference directions, as these are most likely the origin of the problem.

--> FOAM Warning : 
    From function void Foam::cellCuts::setFromCellCutter(const Foam::cellLooper&, const Foam::List<Foam::refineCell>&)
    in file meshCut/cellCuts/cellCuts.C at line 2393
    Found loop on cell 520 that resulted in an unexpected bad cut.
    Suggestions:
      - Turn on the debug switch for 'cellCuts' to get geometry files that identify this cell.
      - Also keep in mind to check the defined reference directions, as these are most likely the origin of the problem.

--> FOAM Warning : 
    From function void Foam::cellCuts::setFromCellCutter(const Foam::cellLooper&, const Foam::List<Foam::refineCell>&)
    in file meshCut/cellCuts/cellCuts.C at line 2393
    Found loop on cell 565 that resulted in an unexpected bad cut.
    Suggestions:
      - Turn on the debug switch for 'cellCuts' to get geometry files that identify this cell.
      - Also keep in mind to check the defined reference directions, as these are most likely the origin of the problem.

--> FOAM Warning : 
    From function void Foam::cellCuts::setFromCellCutter(const Foam::cellLooper&, const Foam::List<Foam::refineCell>&)
    in file meshCut/cellCuts/cellCuts.C at line 2393
    Found loop on cell 567 that resulted in an unexpected bad cut.
    Suggestions:
      - Turn on the debug switch for 'cellCuts' to get geometry files that identify this cell.
      - Also keep in mind to check the defined reference directions, as these are most likely the origin of the problem.

--> FOAM Warning : 
    From function void Foam::cellCuts::setFromCellCutter(const Foam::cellLooper&, const Foam::List<Foam::refineCell>&)
    in file meshCut/cellCuts/cellCuts.C at line 2393
    Found loop on cell 612 that resulted in an unexpected bad cut.
    Suggestions:
      - Turn on the debug switch for 'cellCuts' to get geometry files that identify this cell.
      - Also keep in mind to check the defined reference directions, as these are most likely the origin of the problem.

--> FOAM Warning : 
    From function void Foam::cellCuts::setFromCellCutter(const Foam::cellLooper&, const Foam::List<Foam::refineCell>&)
    in file meshCut/cellCuts/cellCuts.C at line 2393
    Found loop on cell 614 that resulted in an unexpected bad cut.
    Suggestions:
      - Turn on the debug switch for 'cellCuts' to get geometry files that identify this cell.
      - Also keep in mind to check the defined reference directions, as these are most likely the origin of the problem.

--> FOAM Warning : 
    From function void Foam::cellCuts::setFromCellCutter(const Foam::cellLooper&, const Foam::List<Foam::refineCell>&)
    in file meshCut/cellCuts/cellCuts.C at line 2393
    Found loop on cell 659 that resulted in an unexpected bad cut.
    Suggestions:
      - Turn on the debug switch for 'cellCuts' to get geometry files that identify this cell.
      - Also keep in mind to check the defined reference directions, as these are most likely the origin of the problem.

--> FOAM Warning : 
    From function void Foam::cellCuts::setFromCellCutter(const Foam::cellLooper&, const Foam::List<Foam::refineCell>&)
    in file meshCut/cellCuts/cellCuts.C at line 2393
    Found loop on cell 661 that resulted in an unexpected bad cut.
    Suggestions:
      - Turn on the debug switch for 'cellCuts' to get geometry files that identify this cell.
      - Also keep in mind to check the defined reference directions, as these are most likely the origin of the problem.

--> FOAM Warning : 
    From function void Foam::cellCuts::setFromCellCutter(const Foam::cellLooper&, const Foam::List<Foam::refineCell>&)
    in file meshCut/cellCuts/cellCuts.C at line 2393
    Found loop on cell 706 that resulted in an unexpected bad cut.
    Suggestions:
      - Turn on the debug switch for 'cellCuts' to get geometry files that identify this cell.
      - Also keep in mind to check the defined reference directions, as these are most likely the origin of the problem.

--> FOAM Warning : 
    From function void Foam::cellCuts::setFromCellCutter(const Foam::cellLooper&, const Foam::List<Foam::refineCell>&)
    in file meshCut/cellCuts/cellCuts.C at line 2393
    Found loop on cell 708 that resulted in an unexpected bad cut.
    Suggestions:
      - Turn on the debug switch for 'cellCuts' to get geometry files that identify this cell.
      - Also keep in mind to check the defined reference directions, as these are most likely the origin of the problem.

--> FOAM Warning : 
    From function void Foam::cellCuts::setFromCellCutter(const Foam::cellLooper&, const Foam::List<Foam::refineCell>&)
    in file meshCut/cellCuts/cellCuts.C at line 2393
    Found loop on cell 753 that resulted in an unexpected bad cut.
    Suggestions:
      - Turn on the debug switch for 'cellCuts' to get geometry files that identify this cell.
      - Also keep in mind to check the defined reference directions, as these are most likely the origin of the problem.

--> FOAM Warning : 
    From function void Foam::cellCuts::setFromCellCutter(const Foam::cellLooper&, const Foam::List<Foam::refineCell>&)
    in file meshCut/cellCuts/cellCuts.C at line 2393
    Found loop on cell 755 that resulted in an unexpected bad cut.
    Suggestions:
      - Turn on the debug switch for 'cellCuts' to get geometry files that identify this cell.
      - Also keep in mind to check the defined reference directions, as these are most likely the origin of the problem.

--> FOAM Warning : 
    From function void Foam::cellCuts::setFromCellCutter(const Foam::cellLooper&, const Foam::List<Foam::refineCell>&)
    in file meshCut/cellCuts/cellCuts.C at line 2393
    Found loop on cell 800 that resulted in an unexpected bad cut.
    Suggestions:
      - Turn on the debug switch for 'cellCuts' to get geometry files that identify this cell.
      - Also keep in mind to check the defined reference directions, as these are most likely the origin of the problem.

--> FOAM Warning : 
    From function void Foam::cellCuts::setFromCellCutter(const Foam::cellLooper&, const Foam::List<Foam::refineCell>&)
    in file meshCut/cellCuts/cellCuts.C at line 2393
    Found loop on cell 802 that resulted in an unexpected bad cut.
    Suggestions:
      - Turn on the debug switch for 'cellCuts' to get geometry files that identify this cell.
      - Also keep in mind to check the defined reference directions, as these are most likely the origin of the problem.

--> FOAM Warning : 
    From function void Foam::cellCuts::setFromCellCutter(const Foam::cellLooper&, const Foam::List<Foam::refineCell>&)
    in file meshCut/cellCuts/cellCuts.C at line 2393
    Found loop on cell 847 that resulted in an unexpected bad cut.
    Suggestions:
      - Turn on the debug switch for 'cellCuts' to get geometry files that identify this cell.
      - Also keep in mind to check the defined reference directions, as these are most likely the origin of the problem.

--> FOAM Warning : 
    From function void Foam::cellCuts::setFromCellCutter(const Foam::cellLooper&, const Foam::List<Foam::refineCell>&)
    in file meshCut/cellCuts/cellCuts.C at line 2393
    Found loop on cell 849 that resulted in an unexpected bad cut.
    Suggestions:
      - Turn on the debug switch for 'cellCuts' to get geometry files that identify this cell.
      - Also keep in mind to check the defined reference directions, as these are most likely the origin of the problem.

--> FOAM Warning : 
    From function void Foam::cellCuts::setFromCellCutter(const Foam::cellLooper&, const Foam::List<Foam::refineCell>&)
    in file meshCut/cellCuts/cellCuts.C at line 2393
    Found loop on cell 894 that resulted in an unexpected bad cut.
    Suggestions:
      - Turn on the debug switch for 'cellCuts' to get geometry files that identify this cell.
      - Also keep in mind to check the defined reference directions, as these are most likely the origin of the problem.

--> FOAM Warning : 
    From function void Foam::cellCuts::setFromCellCutter(const Foam::cellLooper&, const Foam::List<Foam::refineCell>&)
    in file meshCut/cellCuts/cellCuts.C at line 2393
    Found loop on cell 896 that resulted in an unexpected bad cut.
    Suggestions:
      - Turn on the debug switch for 'cellCuts' to get geometry files that identify this cell.
      - Also keep in mind to check the defined reference directions, as these are most likely the origin of the problem.

--> FOAM Warning : 
    From function void Foam::cellCuts::setFromCellCutter(const Foam::cellLooper&, const Foam::List<Foam::refineCell>&)
    in file meshCut/cellCuts/cellCuts.C at line 2393
    Found loop on cell 941 that resulted in an unexpected bad cut.
    Suggestions:
      - Turn on the debug switch for 'cellCuts' to get geometry files that identify this cell.
      - Also keep in mind to check the defined reference directions, as these are most likely the origin of the problem.

--> FOAM Warning : 
    From function void Foam::cellCuts::setFromCellCutter(const Foam::cellLooper&, const Foam::List<Foam::refineCell>&)
    in file meshCut/cellCuts/cellCuts.C at line 2393
    Found loop on cell 943 that resulted in an unexpected bad cut.
    Suggestions:
      - Turn on the debug switch for 'cellCuts' to get geometry files that identify this cell.
      - Also keep in mind to check the defined reference directions, as these are most likely the origin of the problem.

--> FOAM Warning : 
    From function void Foam::cellCuts::setFromCellCutter(const Foam::cellLooper&, const Foam::List<Foam::refineCell>&)
    in file meshCut/cellCuts/cellCuts.C at line 2393
    Found loop on cell 988 that resulted in an unexpected bad cut.
    Suggestions:
      - Turn on the debug switch for 'cellCuts' to get geometry files that identify this cell.
      - Also keep in mind to check the defined reference directions, as these are most likely the origin of the problem.

--> FOAM Warning : 
    From function void Foam::cellCuts::setFromCellCutter(const Foam::cellLooper&, const Foam::List<Foam::refineCell>&)
    in file meshCut/cellCuts/cellCuts.C at line 2393
    Found loop on cell 990 that resulted in an unexpected bad cut.
    Suggestions:
      - Turn on the debug switch for 'cellCuts' to get geometry files that identify this cell.
      - Also keep in mind to check the defined reference directions, as these are most likely the origin of the problem.

--> FOAM Warning : 
    From function void Foam::cellCuts::setFromCellCutter(const Foam::cellLooper&, const Foam::List<Foam::refineCell>&)
    in file meshCut/cellCuts/cellCuts.C at line 2393
    Found loop on cell 1035 that resulted in an unexpected bad cut.
    Suggestions:
      - Turn on the debug switch for 'cellCuts' to get geometry files that identify this cell.
      - Also keep in mind to check the defined reference directions, as these are most likely the origin of the problem.

--> FOAM Warning : 
    From function void Foam::cellCuts::setFromCellCutter(const Foam::cellLooper&, const Foam::List<Foam::refineCell>&)
    in file meshCut/cellCuts/cellCuts.C at line 2393
    Found loop on cell 1037 that resulted in an unexpected bad cut.
    Suggestions:
      - Turn on the debug switch for 'cellCuts' to get geometry files that identify this cell.
      - Also keep in mind to check the defined reference directions, as these are most likely the origin of the problem.

--> FOAM Warning : 
    From function void Foam::cellCuts::setFromCellCutter(const Foam::cellLooper&, const Foam::List<Foam::refineCell>&)
    in file meshCut/cellCuts/cellCuts.C at line 2393
    Found loop on cell 1082 that resulted in an unexpected bad cut.
    Suggestions:
      - Turn on the debug switch for 'cellCuts' to get geometry files that identify this cell.
      - Also keep in mind to check the defined reference directions, as these are most likely the origin of the problem.

--> FOAM Warning : 
    From function void Foam::cellCuts::setFromCellCutter(const Foam::cellLooper&, const Foam::List<Foam::refineCell>&)
    in file meshCut/cellCuts/cellCuts.C at line 2393
    Found loop on cell 1084 that resulted in an unexpected bad cut.
    Suggestions:
      - Turn on the debug switch for 'cellCuts' to get geometry files that identify this cell.
      - Also keep in mind to check the defined reference directions, as these are most likely the origin of the problem.

--> FOAM Warning : 
    From function void Foam::cellCuts::setFromCellCutter(const Foam::cellLooper&, const Foam::List<Foam::refineCell>&)
    in file meshCut/cellCuts/cellCuts.C at line 2393
    Found loop on cell 1129 that resulted in an unexpected bad cut.
    Suggestions:
      - Turn on the debug switch for 'cellCuts' to get geometry files that identify this cell.
      - Also keep in mind to check the defined reference directions, as these are most likely the origin of the problem.

--> FOAM Warning : 
    From function void Foam::cellCuts::setFromCellCutter(const Foam::cellLooper&, const Foam::List<Foam::refineCell>&)
    in file meshCut/cellCuts/cellCuts.C at line 2393
    Found loop on cell 1131 that resulted in an unexpected bad cut.
    Suggestions:
      - Turn on the debug switch for 'cellCuts' to get geometry files that identify this cell.
      - Also keep in mind to check the defined reference directions, as these are most likely the origin of the problem.

--> FOAM Warning : 
    From function void Foam::cellCuts::setFromCellCutter(const Foam::cellLooper&, const Foam::List<Foam::refineCell>&)
    in file meshCut/cellCuts/cellCuts.C at line 2393
    Found loop on cell 1176 that resulted in an unexpected bad cut.
    Suggestions:
      - Turn on the debug switch for 'cellCuts' to get geometry files that identify this cell.
      - Also keep in mind to check the defined reference directions, as these are most likely the origin of the problem.

--> FOAM Warning : 
    From function void Foam::cellCuts::setFromCellCutter(const Foam::cellLooper&, const Foam::List<Foam::refineCell>&)
    in file meshCut/cellCuts/cellCuts.C at line 2393
    Found loop on cell 1178 that resulted in an unexpected bad cut.
    Suggestions:
      - Turn on the debug switch for 'cellCuts' to get geometry files that identify this cell.
      - Also keep in mind to check the defined reference directions, as these are most likely the origin of the problem.

--> FOAM Warning : 
    From function void Foam::cellCuts::setFromCellCutter(const Foam::cellLooper&, const Foam::List<Foam::refineCell>&)
    in file meshCut/cellCuts/cellCuts.C at line 2393
    Found loop on cell 1223 that resulted in an unexpected bad cut.
    Suggestions:
      - Turn on the debug switch for 'cellCuts' to get geometry files that identify this cell.
      - Also keep in mind to check the defined reference directions, as these are most likely the origin of the problem.

--> FOAM Warning : 
    From function void Foam::cellCuts::setFromCellCutter(const Foam::cellLooper&, const Foam::List<Foam::refineCell>&)
    in file meshCut/cellCuts/cellCuts.C at line 2393
    Found loop on cell 1225 that resulted in an unexpected bad cut.
    Suggestions:
      - Turn on the debug switch for 'cellCuts' to get geometry files that identify this cell.
      - Also keep in mind to check the defined reference directions, as these are most likely the origin of the problem.

--> FOAM Warning : 
    From function void Foam::cellCuts::setFromCellCutter(const Foam::cellLooper&, const Foam::List<Foam::refineCell>&)
    in file meshCut/cellCuts/cellCuts.C at line 2393
    Found loop on cell 1270 that resulted in an unexpected bad cut.
    Suggestions:
      - Turn on the debug switch for 'cellCuts' to get geometry files that identify this cell.
      - Also keep in mind to check the defined reference directions, as these are most likely the origin of the problem.

--> FOAM Warning : 
    From function void Foam::cellCuts::setFromCellCutter(const Foam::cellLooper&, const Foam::List<Foam::refineCell>&)
    in file meshCut/cellCuts/cellCuts.C at line 2393
    Found loop on cell 1272 that resulted in an unexpected bad cut.
    Suggestions:
      - Turn on the debug switch for 'cellCuts' to get geometry files that identify this cell.
      - Also keep in mind to check the defined reference directions, as these are most likely the origin of the problem.

--> FOAM Warning : 
    From function void Foam::cellCuts::setFromCellCutter(const Foam::cellLooper&, const Foam::List<Foam::refineCell>&)
    in file meshCut/cellCuts/cellCuts.C at line 2393
    Found loop on cell 1317 that resulted in an unexpected bad cut.
    Suggestions:
      - Turn on the debug switch for 'cellCuts' to get geometry files that identify this cell.
      - Also keep in mind to check the defined reference directions, as these are most likely the origin of the problem.

--> FOAM Warning : 
    From function void Foam::cellCuts::setFromCellCutter(const Foam::cellLooper&, const Foam::List<Foam::refineCell>&)
    in file meshCut/cellCuts/cellCuts.C at line 2393
    Found loop on cell 1319 that resulted in an unexpected bad cut.
    Suggestions:
      - Turn on the debug switch for 'cellCuts' to get geometry files that identify this cell.
      - Also keep in mind to check the defined reference directions, as these are most likely the origin of the problem.

--> FOAM Warning : 
    From function void Foam::cellCuts::setFromCellCutter(const Foam::cellLooper&, const Foam::List<Foam::refineCell>&)
    in file meshCut/cellCuts/cellCuts.C at line 2393
    Found loop on cell 1364 that resulted in an unexpected bad cut.
    Suggestions:
      - Turn on the debug switch for 'cellCuts' to get geometry files that identify this cell.
      - Also keep in mind to check the defined reference directions, as these are most likely the origin of the problem.

--> FOAM Warning : 
    From function void Foam::cellCuts::setFromCellCutter(const Foam::cellLooper&, const Foam::List<Foam::refineCell>&)
    in file meshCut/cellCuts/cellCuts.C at line 2393
    Found loop on cell 1366 that resulted in an unexpected bad cut.
    Suggestions:
      - Turn on the debug switch for 'cellCuts' to get geometry files that identify this cell.
      - Also keep in mind to check the defined reference directions, as these are most likely the origin of the problem.

--> FOAM Warning : 
    From function void Foam::cellCuts::setFromCellCutter(const Foam::cellLooper&, const Foam::List<Foam::refineCell>&)
    in file meshCut/cellCuts/cellCuts.C at line 2393
    Found loop on cell 1881 that resulted in an unexpected bad cut.
    Suggestions:
      - Turn on the debug switch for 'cellCuts' to get geometry files that identify this cell.
      - Also keep in mind to check the defined reference directions, as these are most likely the origin of the problem.

--> FOAM Warning : 
    From function void Foam::cellCuts::setFromCellCutter(const Foam::cellLooper&, const Foam::List<Foam::refineCell>&)
    in file meshCut/cellCuts/cellCuts.C at line 2393
    Found loop on cell 1883 that resulted in an unexpected bad cut.
    Suggestions:
      - Turn on the debug switch for 'cellCuts' to get geometry files that identify this cell.
      - Also keep in mind to check the defined reference directions, as these are most likely the origin of the problem.

--> FOAM Warning : 
    From function void Foam::cellCuts::setFromCellCutter(const Foam::cellLooper&, const Foam::List<Foam::refineCell>&)
    in file meshCut/cellCuts/cellCuts.C at line 2393
    Found loop on cell 1886 that resulted in an unexpected bad cut.
    Suggestions:
      - Turn on the debug switch for 'cellCuts' to get geometry files that identify this cell.
      - Also keep in mind to check the defined reference directions, as these are most likely the origin of the problem.

--> FOAM Warning : 
    From function void Foam::cellCuts::setFromCellCutter(const Foam::cellLooper&, const Foam::List<Foam::refineCell>&)
    in file meshCut/cellCuts/cellCuts.C at line 2393
    Found loop on cell 1888 that resulted in an unexpected bad cut.
    Suggestions:
      - Turn on the debug switch for 'cellCuts' to get geometry files that identify this cell.
      - Also keep in mind to check the defined reference directions, as these are most likely the origin of the problem.

--> FOAM Warning : 
    From function void Foam::cellCuts::setFromCellCutter(const Foam::cellLooper&, const Foam::List<Foam::refineCell>&)
    in file meshCut/cellCuts/cellCuts.C at line 2393
    Found loop on cell 1891 that resulted in an unexpected bad cut.
    Suggestions:
      - Turn on the debug switch for 'cellCuts' to get geometry files that identify this cell.
      - Also keep in mind to check the defined reference directions, as these are most likely the origin of the problem.

--> FOAM Warning : 
    From function void Foam::cellCuts::setFromCellCutter(const Foam::cellLooper&, const Foam::List<Foam::refineCell>&)
    in file meshCut/cellCuts/cellCuts.C at line 2393
    Found loop on cell 1893 that resulted in an unexpected bad cut.
    Suggestions:
      - Turn on the debug switch for 'cellCuts' to get geometry files that identify this cell.
      - Also keep in mind to check the defined reference directions, as these are most likely the origin of the problem.

--> FOAM Warning : 
    From function void Foam::cellCuts::setFromCellCutter(const Foam::cellLooper&, const Foam::List<Foam::refineCell>&)
    in file meshCut/cellCuts/cellCuts.C at line 2393
    Found loop on cell 1896 that resulted in an unexpected bad cut.
    Suggestions:
      - Turn on the debug switch for 'cellCuts' to get geometry files that identify this cell.
      - Also keep in mind to check the defined reference directions, as these are most likely the origin of the problem.

--> FOAM Warning : 
    From function void Foam::cellCuts::setFromCellCutter(const Foam::cellLooper&, const Foam::List<Foam::refineCell>&)
    in file meshCut/cellCuts/cellCuts.C at line 2393
    Found loop on cell 1898 that resulted in an unexpected bad cut.
    Suggestions:
      - Turn on the debug switch for 'cellCuts' to get geometry files that identify this cell.
      - Also keep in mind to check the defined reference directions, as these are most likely the origin of the problem.

--> FOAM Warning : 
    From function void Foam::cellCuts::setFromCellCutter(const Foam::cellLooper&, const Foam::List<Foam::refineCell>&)
    in file meshCut/cellCuts/cellCuts.C at line 2393
    Found loop on cell 1901 that resulted in an unexpected bad cut.
    Suggestions:
      - Turn on the debug switch for 'cellCuts' to get geometry files that identify this cell.
      - Also keep in mind to check the defined reference directions, as these are most likely the origin of the problem.

--> FOAM Warning : 
    From function void Foam::cellCuts::setFromCellCutter(const Foam::cellLooper&, const Foam::List<Foam::refineCell>&)
    in file meshCut/cellCuts/cellCuts.C at line 2393
    Found loop on cell 1903 that resulted in an unexpected bad cut.
    Suggestions:
      - Turn on the debug switch for 'cellCuts' to get geometry files that identify this cell.
      - Also keep in mind to check the defined reference directions, as these are most likely the origin of the problem.

--> FOAM Warning : 
    From function void Foam::cellCuts::setFromCellCutter(const Foam::cellLooper&, const Foam::List<Foam::refineCell>&)
    in file meshCut/cellCuts/cellCuts.C at line 2393
    Found loop on cell 1906 that resulted in an unexpected bad cut.
    Suggestions:
      - Turn on the debug switch for 'cellCuts' to get geometry files that identify this cell.
      - Also keep in mind to check the defined reference directions, as these are most likely the origin of the problem.

--> FOAM Warning : 
    From function void Foam::cellCuts::setFromCellCutter(const Foam::cellLooper&, const Foam::List<Foam::refineCell>&)
    in file meshCut/cellCuts/cellCuts.C at line 2393
    Found loop on cell 1908 that resulted in an unexpected bad cut.
    Suggestions:
      - Turn on the debug switch for 'cellCuts' to get geometry files that identify this cell.
      - Also keep in mind to check the defined reference directions, as these are most likely the origin of the problem.

--> FOAM Warning : 
    From function void Foam::cellCuts::setFromCellCutter(const Foam::cellLooper&, const Foam::List<Foam::refineCell>&)
    in file meshCut/cellCuts/cellCuts.C at line 2393
    Found loop on cell 1911 that resulted in an unexpected bad cut.
    Suggestions:
      - Turn on the debug switch for 'cellCuts' to get geometry files that identify this cell.
      - Also keep in mind to check the defined reference directions, as these are most likely the origin of the problem.

--> FOAM Warning : 
    From function void Foam::cellCuts::setFromCellCutter(const Foam::cellLooper&, const Foam::List<Foam::refineCell>&)
    in file meshCut/cellCuts/cellCuts.C at line 2393
    Found loop on cell 1913 that resulted in an unexpected bad cut.
    Suggestions:
      - Turn on the debug switch for 'cellCuts' to get geometry files that identify this cell.
      - Also keep in mind to check the defined reference directions, as these are most likely the origin of the problem.

--> FOAM Warning : 
    From function void Foam::cellCuts::setFromCellCutter(const Foam::cellLooper&, const Foam::List<Foam::refineCell>&)
    in file meshCut/cellCuts/cellCuts.C at line 2393
    Found loop on cell 1916 that resulted in an unexpected bad cut.
    Suggestions:
      - Turn on the debug switch for 'cellCuts' to get geometry files that identify this cell.
      - Also keep in mind to check the defined reference directions, as these are most likely the origin of the problem.

--> FOAM Warning : 
    From function void Foam::cellCuts::setFromCellCutter(const Foam::cellLooper&, const Foam::List<Foam::refineCell>&)
    in file meshCut/cellCuts/cellCuts.C at line 2393
    Found loop on cell 1918 that resulted in an unexpected bad cut.
    Suggestions:
      - Turn on the debug switch for 'cellCuts' to get geometry files that identify this cell.
      - Also keep in mind to check the defined reference directions, as these are most likely the origin of the problem.

--> FOAM Warning : 
    From function void Foam::cellCuts::setFromCellCutter(const Foam::cellLooper&, const Foam::List<Foam::refineCell>&)
    in file meshCut/cellCuts/cellCuts.C at line 2393
    Found loop on cell 1921 that resulted in an unexpected bad cut.
    Suggestions:
      - Turn on the debug switch for 'cellCuts' to get geometry files that identify this cell.
      - Also keep in mind to check the defined reference directions, as these are most likely the origin of the problem.

--> FOAM Warning : 
    From function void Foam::cellCuts::setFromCellCutter(const Foam::cellLooper&, const Foam::List<Foam::refineCell>&)
    in file meshCut/cellCuts/cellCuts.C at line 2393
    Found loop on cell 1923 that resulted in an unexpected bad cut.
    Suggestions:
      - Turn on the debug switch for 'cellCuts' to get geometry files that identify this cell.
      - Also keep in mind to check the defined reference directions, as these are most likely the origin of the problem.

--> FOAM Warning : 
    From function void Foam::cellCuts::setFromCellCutter(const Foam::cellLooper&, const Foam::List<Foam::refineCell>&)
    in file meshCut/cellCuts/cellCuts.C at line 2393
    Found loop on cell 1926 that resulted in an unexpected bad cut.
    Suggestions:
      - Turn on the debug switch for 'cellCuts' to get geometry files that identify this cell.
      - Also keep in mind to check the defined reference directions, as these are most likely the origin of the problem.

--> FOAM Warning : 
    From function void Foam::cellCuts::setFromCellCutter(const Foam::cellLooper&, const Foam::List<Foam::refineCell>&)
    in file meshCut/cellCuts/cellCuts.C at line 2393
    Found loop on cell 1928 that resulted in an unexpected bad cut.
    Suggestions:
      - Turn on the debug switch for 'cellCuts' to get geometry files that identify this cell.
      - Also keep in mind to check the defined reference directions, as these are most likely the origin of the problem.

--> FOAM Warning : 
    From function void Foam::cellCuts::setFromCellCutter(const Foam::cellLooper&, const Foam::List<Foam::refineCell>&)
    in file meshCut/cellCuts/cellCuts.C at line 2393
    Found loop on cell 1931 that resulted in an unexpected bad cut.
    Suggestions:
      - Turn on the debug switch for 'cellCuts' to get geometry files that identify this cell.
      - Also keep in mind to check the defined reference directions, as these are most likely the origin of the problem.

--> FOAM Warning : 
    From function void Foam::cellCuts::setFromCellCutter(const Foam::cellLooper&, const Foam::List<Foam::refineCell>&)
    in file meshCut/cellCuts/cellCuts.C at line 2393
    Found loop on cell 1933 that resulted in an unexpected bad cut.
    Suggestions:
      - Turn on the debug switch for 'cellCuts' to get geometry files that identify this cell.
      - Also keep in mind to check the defined reference directions, as these are most likely the origin of the problem.

--> FOAM Warning : 
    From function void Foam::cellCuts::setFromCellCutter(const Foam::cellLooper&, const Foam::List<Foam::refineCell>&)
    in file meshCut/cellCuts/cellCuts.C at line 2393
    Found loop on cell 1936 that resulted in an unexpected bad cut.
    Suggestions:
      - Turn on the debug switch for 'cellCuts' to get geometry files that identify this cell.
      - Also keep in mind to check the defined reference directions, as these are most likely the origin of the problem.

--> FOAM Warning : 
    From function void Foam::cellCuts::setFromCellCutter(const Foam::cellLooper&, const Foam::List<Foam::refineCell>&)
    in file meshCut/cellCuts/cellCuts.C at line 2393
    Found loop on cell 1938 that resulted in an unexpected bad cut.
    Suggestions:
      - Turn on the debug switch for 'cellCuts' to get geometry files that identify this cell.
      - Also keep in mind to check the defined reference directions, as these are most likely the origin of the problem.

--> FOAM Warning : 
    From function void Foam::cellCuts::setFromCellCutter(const Foam::cellLooper&, const Foam::List<Foam::refineCell>&)
    in file meshCut/cellCuts/cellCuts.C at line 2393
    Found loop on cell 1941 that resulted in an unexpected bad cut.
    Suggestions:
      - Turn on the debug switch for 'cellCuts' to get geometry files that identify this cell.
      - Also keep in mind to check the defined reference directions, as these are most likely the origin of the problem.

--> FOAM Warning : 
    From function void Foam::cellCuts::setFromCellCutter(const Foam::cellLooper&, const Foam::List<Foam::refineCell>&)
    in file meshCut/cellCuts/cellCuts.C at line 2393
    Found loop on cell 1943 that resulted in an unexpected bad cut.
    Suggestions:
      - Turn on the debug switch for 'cellCuts' to get geometry files that identify this cell.
      - Also keep in mind to check the defined reference directions, as these are most likely the origin of the problem.

--> FOAM Warning : 
    From function void Foam::cellCuts::setFromCellCutter(const Foam::cellLooper&, const Foam::List<Foam::refineCell>&)
    in file meshCut/cellCuts/cellCuts.C at line 2393
    Found loop on cell 1946 that resulted in an unexpected bad cut.
    Suggestions:
      - Turn on the debug switch for 'cellCuts' to get geometry files that identify this cell.
      - Also keep in mind to check the defined reference directions, as these are most likely the origin of the problem.

--> FOAM Warning : 
    From function void Foam::cellCuts::setFromCellCutter(const Foam::cellLooper&, const Foam::List<Foam::refineCell>&)
    in file meshCut/cellCuts/cellCuts.C at line 2393
    Found loop on cell 1948 that resulted in an unexpected bad cut.
    Suggestions:
      - Turn on the debug switch for 'cellCuts' to get geometry files that identify this cell.
      - Also keep in mind to check the defined reference directions, as these are most likely the origin of the problem.

--> FOAM Warning : 
    From function void Foam::cellCuts::setFromCellCutter(const Foam::cellLooper&, const Foam::List<Foam::refineCell>&)
    in file meshCut/cellCuts/cellCuts.C at line 2393
    Found loop on cell 1951 that resulted in an unexpected bad cut.
    Suggestions:
      - Turn on the debug switch for 'cellCuts' to get geometry files that identify this cell.
      - Also keep in mind to check the defined reference directions, as these are most likely the origin of the problem.

--> FOAM Warning : 
    From function void Foam::cellCuts::setFromCellCutter(const Foam::cellLooper&, const Foam::List<Foam::refineCell>&)
    in file meshCut/cellCuts/cellCuts.C at line 2393
    Found loop on cell 1953 that resulted in an unexpected bad cut.
    Suggestions:
      - Turn on the debug switch for 'cellCuts' to get geometry files that identify this cell.
      - Also keep in mind to check the defined reference directions, as these are most likely the origin of the problem.

--> FOAM Warning : 
    From function void Foam::cellCuts::setFromCellCutter(const Foam::cellLooper&, const Foam::List<Foam::refineCell>&)
    in file meshCut/cellCuts/cellCuts.C at line 2393
    Found loop on cell 1956 that resulted in an unexpected bad cut.
    Suggestions:
      - Turn on the debug switch for 'cellCuts' to get geometry files that identify this cell.
      - Also keep in mind to check the defined reference directions, as these are most likely the origin of the problem.

--> FOAM Warning : 
    From function void Foam::cellCuts::setFromCellCutter(const Foam::cellLooper&, const Foam::List<Foam::refineCell>&)
    in file meshCut/cellCuts/cellCuts.C at line 2393
    Found loop on cell 1958 that resulted in an unexpected bad cut.
    Suggestions:
      - Turn on the debug switch for 'cellCuts' to get geometry files that identify this cell.
      - Also keep in mind to check the defined reference directions, as these are most likely the origin of the problem.

--> FOAM Warning : 
    From function void Foam::cellCuts::setFromCellCutter(const Foam::cellLooper&, const Foam::List<Foam::refineCell>&)
    in file meshCut/cellCuts/cellCuts.C at line 2393
    Found loop on cell 1961 that resulted in an unexpected bad cut.
    Suggestions:
      - Turn on the debug switch for 'cellCuts' to get geometry files that identify this cell.
      - Also keep in mind to check the defined reference directions, as these are most likely the origin of the problem.

--> FOAM Warning : 
    From function void Foam::cellCuts::setFromCellCutter(const Foam::cellLooper&, const Foam::List<Foam::refineCell>&)
    in file meshCut/cellCuts/cellCuts.C at line 2393
    Found loop on cell 1963 that resulted in an unexpected bad cut.
    Suggestions:
      - Turn on the debug switch for 'cellCuts' to get geometry files that identify this cell.
      - Also keep in mind to check the defined reference directions, as these are most likely the origin of the problem.

--> FOAM Warning : 
    From function void Foam::cellCuts::setFromCellCutter(const Foam::cellLooper&, const Foam::List<Foam::refineCell>&)
    in file meshCut/cellCuts/cellCuts.C at line 2393
    Found loop on cell 1966 that resulted in an unexpected bad cut.
    Suggestions:
      - Turn on the debug switch for 'cellCuts' to get geometry files that identify this cell.
      - Also keep in mind to check the defined reference directions, as these are most likely the origin of the problem.

--> FOAM Warning : 
    From function void Foam::cellCuts::setFromCellCutter(const Foam::cellLooper&, const Foam::List<Foam::refineCell>&)
    in file meshCut/cellCuts/cellCuts.C at line 2393
    Found loop on cell 1968 that resulted in an unexpected bad cut.
    Suggestions:
      - Turn on the debug switch for 'cellCuts' to get geometry files that identify this cell.
      - Also keep in mind to check the defined reference directions, as these are most likely the origin of the problem.

--> FOAM Warning : 
    From function void Foam::cellCuts::setFromCellCutter(const Foam::cellLooper&, const Foam::List<Foam::refineCell>&)
    in file meshCut/cellCuts/cellCuts.C at line 2393
    Found loop on cell 1971 that resulted in an unexpected bad cut.
    Suggestions:
      - Turn on the debug switch for 'cellCuts' to get geometry files that identify this cell.
      - Also keep in mind to check the defined reference directions, as these are most likely the origin of the problem.

--> FOAM Warning : 
    From function void Foam::cellCuts::setFromCellCutter(const Foam::cellLooper&, const Foam::List<Foam::refineCell>&)
    in file meshCut/cellCuts/cellCuts.C at line 2393
    Found loop on cell 1973 that resulted in an unexpected bad cut.
    Suggestions:
      - Turn on the debug switch for 'cellCuts' to get geometry files that identify this cell.
      - Also keep in mind to check the defined reference directions, as these are most likely the origin of the problem.

--> FOAM Warning : 
    From function void Foam::cellCuts::setFromCellCutter(const Foam::cellLooper&, const Foam::List<Foam::refineCell>&)
    in file meshCut/cellCuts/cellCuts.C at line 2393
    Found loop on cell 1976 that resulted in an unexpected bad cut.
    Suggestions:
      - Turn on the debug switch for 'cellCuts' to get geometry files that identify this cell.
      - Also keep in mind to check the defined reference directions, as these are most likely the origin of the problem.

--> FOAM Warning : 
    From function void Foam::cellCuts::setFromCellCutter(const Foam::cellLooper&, const Foam::List<Foam::refineCell>&)
    in file meshCut/cellCuts/cellCuts.C at line 2393
    Found loop on cell 1978 that resulted in an unexpected bad cut.
    Suggestions:
      - Turn on the debug switch for 'cellCuts' to get geometry files that identify this cell.
      - Also keep in mind to check the defined reference directions, as these are most likely the origin of the problem.

--> FOAM Warning : 
    From function void Foam::cellCuts::setFromCellCutter(const Foam::cellLooper&, const Foam::List<Foam::refineCell>&)
    in file meshCut/cellCuts/cellCuts.C at line 2393
    Found loop on cell 2081 that resulted in an unexpected bad cut.
    Suggestions:
      - Turn on the debug switch for 'cellCuts' to get geometry files that identify this cell.
      - Also keep in mind to check the defined reference directions, as these are most likely the origin of the problem.

--> FOAM Warning : 
    From function void Foam::cellCuts::setFromCellCutter(const Foam::cellLooper&, const Foam::List<Foam::refineCell>&)
    in file meshCut/cellCuts/cellCuts.C at line 2393
    Found loop on cell 2083 that resulted in an unexpected bad cut.
    Suggestions:
      - Turn on the debug switch for 'cellCuts' to get geometry files that identify this cell.
      - Also keep in mind to check the defined reference directions, as these are most likely the origin of the problem.

--> FOAM Warning : 
    From function void Foam::cellCuts::setFromCellCutter(const Foam::cellLooper&, const Foam::List<Foam::refineCell>&)
    in file meshCut/cellCuts/cellCuts.C at line 2393
    Found loop on cell 2086 that resulted in an unexpected bad cut.
    Suggestions:
      - Turn on the debug switch for 'cellCuts' to get geometry files that identify this cell.
      - Also keep in mind to check the defined reference directions, as these are most likely the origin of the problem.

--> FOAM Warning : 
    From function void Foam::cellCuts::setFromCellCutter(const Foam::cellLooper&, const Foam::List<Foam::refineCell>&)
    in file meshCut/cellCuts/cellCuts.C at line 2393
    Found loop on cell 2092 that resulted in an unexpected bad cut.
    Suggestions:
      - Turn on the debug switch for 'cellCuts' to get geometry files that identify this cell.
      - Also keep in mind to check the defined reference directions, as these are most likely the origin of the problem.

--> FOAM Warning : 
    From function void Foam::cellCuts::setFromCellCutter(const Foam::cellLooper&, const Foam::List<Foam::refineCell>&)
    in file meshCut/cellCuts/cellCuts.C at line 2393
    Found loop on cell 2094 that resulted in an unexpected bad cut.
    Suggestions:
      - Turn on the debug switch for 'cellCuts' to get geometry files that identify this cell.
      - Also keep in mind to check the defined reference directions, as these are most likely the origin of the problem.

--> FOAM Warning : 
    From function void Foam::cellCuts::setFromCellCutter(const Foam::cellLooper&, const Foam::List<Foam::refineCell>&)
    in file meshCut/cellCuts/cellCuts.C at line 2393
    Found loop on cell 2097 that resulted in an unexpected bad cut.
    Suggestions:
      - Turn on the debug switch for 'cellCuts' to get geometry files that identify this cell.
      - Also keep in mind to check the defined reference directions, as these are most likely the origin of the problem.

--> FOAM Warning : 
    From function void Foam::cellCuts::setFromCellCutter(const Foam::cellLooper&, const Foam::List<Foam::refineCell>&)
    in file meshCut/cellCuts/cellCuts.C at line 2393
    Found loop on cell 2103 that resulted in an unexpected bad cut.
    Suggestions:
      - Turn on the debug switch for 'cellCuts' to get geometry files that identify this cell.
      - Also keep in mind to check the defined reference directions, as these are most likely the origin of the problem.

--> FOAM Warning : 
    From function void Foam::cellCuts::setFromCellCutter(const Foam::cellLooper&, const Foam::List<Foam::refineCell>&)
    in file meshCut/cellCuts/cellCuts.C at line 2393
    Found loop on cell 2105 that resulted in an unexpected bad cut.
    Suggestions:
      - Turn on the debug switch for 'cellCuts' to get geometry files that identify this cell.
      - Also keep in mind to check the defined reference directions, as these are most likely the origin of the problem.

--> FOAM Warning : 
    From function void Foam::cellCuts::setFromCellCutter(const Foam::cellLooper&, const Foam::List<Foam::refineCell>&)
    in file meshCut/cellCuts/cellCuts.C at line 2393
    Found loop on cell 2108 that resulted in an unexpected bad cut.
    Suggestions:
      - Turn on the debug switch for 'cellCuts' to get geometry files that identify this cell.
      - Also keep in mind to check the defined reference directions, as these are most likely the origin of the problem.

--> FOAM Warning : 
    From function void Foam::cellCuts::setFromCellCutter(const Foam::cellLooper&, const Foam::List<Foam::refineCell>&)
    in file meshCut/cellCuts/cellCuts.C at line 2393
    Found loop on cell 2114 that resulted in an unexpected bad cut.
    Suggestions:
      - Turn on the debug switch for 'cellCuts' to get geometry files that identify this cell.
      - Also keep in mind to check the defined reference directions, as these are most likely the origin of the problem.

--> FOAM Warning : 
    From function void Foam::cellCuts::setFromCellCutter(const Foam::cellLooper&, const Foam::List<Foam::refineCell>&)
    in file meshCut/cellCuts/cellCuts.C at line 2393
    Found loop on cell 2116 that resulted in an unexpected bad cut.
    Suggestions:
      - Turn on the debug switch for 'cellCuts' to get geometry files that identify this cell.
      - Also keep in mind to check the defined reference directions, as these are most likely the origin of the problem.

--> FOAM Warning : 
    From function void Foam::cellCuts::setFromCellCutter(const Foam::cellLooper&, const Foam::List<Foam::refineCell>&)
    in file meshCut/cellCuts/cellCuts.C at line 2393
    Found loop on cell 2119 that resulted in an unexpected bad cut.
    Suggestions:
      - Turn on the debug switch for 'cellCuts' to get geometry files that identify this cell.
      - Also keep in mind to check the defined reference directions, as these are most likely the origin of the problem.

--> FOAM Warning : 
    From function void Foam::cellCuts::setFromCellCutter(const Foam::cellLooper&, const Foam::List<Foam::refineCell>&)
    in file meshCut/cellCuts/cellCuts.C at line 2393
    Found loop on cell 2125 that resulted in an unexpected bad cut.
    Suggestions:
      - Turn on the debug switch for 'cellCuts' to get geometry files that identify this cell.
      - Also keep in mind to check the defined reference directions, as these are most likely the origin of the problem.

--> FOAM Warning : 
    From function void Foam::cellCuts::setFromCellCutter(const Foam::cellLooper&, const Foam::List<Foam::refineCell>&)
    in file meshCut/cellCuts/cellCuts.C at line 2393
    Found loop on cell 2127 that resulted in an unexpected bad cut.
    Suggestions:
      - Turn on the debug switch for 'cellCuts' to get geometry files that identify this cell.
      - Also keep in mind to check the defined reference directions, as these are most likely the origin of the problem.

--> FOAM Warning : 
    From function void Foam::cellCuts::setFromCellCutter(const Foam::cellLooper&, const Foam::List<Foam::refineCell>&)
    in file meshCut/cellCuts/cellCuts.C at line 2393
    Found loop on cell 2130 that resulted in an unexpected bad cut.
    Suggestions:
      - Turn on the debug switch for 'cellCuts' to get geometry files that identify this cell.
      - Also keep in mind to check the defined reference directions, as these are most likely the origin of the problem.

--> FOAM Warning : 
    From function void Foam::cellCuts::setFromCellCutter(const Foam::cellLooper&, const Foam::List<Foam::refineCell>&)
    in file meshCut/cellCuts/cellCuts.C at line 2393
    Found loop on cell 2136 that resulted in an unexpected bad cut.
    Suggestions:
      - Turn on the debug switch for 'cellCuts' to get geometry files that identify this cell.
      - Also keep in mind to check the defined reference directions, as these are most likely the origin of the problem.

--> FOAM Warning : 
    From function void Foam::cellCuts::setFromCellCutter(const Foam::cellLooper&, const Foam::List<Foam::refineCell>&)
    in file meshCut/cellCuts/cellCuts.C at line 2393
    Found loop on cell 2138 that resulted in an unexpected bad cut.
    Suggestions:
      - Turn on the debug switch for 'cellCuts' to get geometry files that identify this cell.
      - Also keep in mind to check the defined reference directions, as these are most likely the origin of the problem.

--> FOAM Warning : 
    From function void Foam::cellCuts::setFromCellCutter(const Foam::cellLooper&, const Foam::List<Foam::refineCell>&)
    in file meshCut/cellCuts/cellCuts.C at line 2393
    Found loop on cell 2141 that resulted in an unexpected bad cut.
    Suggestions:
      - Turn on the debug switch for 'cellCuts' to get geometry files that identify this cell.
      - Also keep in mind to check the defined reference directions, as these are most likely the origin of the problem.

--> FOAM Warning : 
    From function void Foam::cellCuts::setFromCellCutter(const Foam::cellLooper&, const Foam::List<Foam::refineCell>&)
    in file meshCut/cellCuts/cellCuts.C at line 2393
    Found loop on cell 2147 that resulted in an unexpected bad cut.
    Suggestions:
      - Turn on the debug switch for 'cellCuts' to get geometry files that identify this cell.
      - Also keep in mind to check the defined reference directions, as these are most likely the origin of the problem.

--> FOAM Warning : 
    From function void Foam::cellCuts::setFromCellCutter(const Foam::cellLooper&, const Foam::List<Foam::refineCell>&)
    in file meshCut/cellCuts/cellCuts.C at line 2393
    Found loop on cell 2149 that resulted in an unexpected bad cut.
    Suggestions:
      - Turn on the debug switch for 'cellCuts' to get geometry files that identify this cell.
      - Also keep in mind to check the defined reference directions, as these are most likely the origin of the problem.

--> FOAM Warning : 
    From function void Foam::cellCuts::setFromCellCutter(const Foam::cellLooper&, const Foam::List<Foam::refineCell>&)
    in file meshCut/cellCuts/cellCuts.C at line 2393
    Found loop on cell 2152 that resulted in an unexpected bad cut.
    Suggestions:
      - Turn on the debug switch for 'cellCuts' to get geometry files that identify this cell.
      - Also keep in mind to check the defined reference directions, as these are most likely the origin of the problem.

--> FOAM Warning : 
    From function void Foam::cellCuts::setFromCellCutter(const Foam::cellLooper&, const Foam::List<Foam::refineCell>&)
    in file meshCut/cellCuts/cellCuts.C at line 2393
    Found loop on cell 2158 that resulted in an unexpected bad cut.
    Suggestions:
      - Turn on the debug switch for 'cellCuts' to get geometry files that identify this cell.
      - Also keep in mind to check the defined reference directions, as these are most likely the origin of the problem.

--> FOAM Warning : 
    From function void Foam::cellCuts::setFromCellCutter(const Foam::cellLooper&, const Foam::List<Foam::refineCell>&)
    in file meshCut/cellCuts/cellCuts.C at line 2393
    Found loop on cell 2160 that resulted in an unexpected bad cut.
    Suggestions:
      - Turn on the debug switch for 'cellCuts' to get geometry files that identify this cell.
      - Also keep in mind to check the defined reference directions, as these are most likely the origin of the problem.

--> FOAM Warning : 
    From function void Foam::cellCuts::setFromCellCutter(const Foam::cellLooper&, const Foam::List<Foam::refineCell>&)
    in file meshCut/cellCuts/cellCuts.C at line 2393
    Found loop on cell 2163 that resulted in an unexpected bad cut.
    Suggestions:
      - Turn on the debug switch for 'cellCuts' to get geometry files that identify this cell.
      - Also keep in mind to check the defined reference directions, as these are most likely the origin of the problem.

--> FOAM Warning : 
    From function void Foam::cellCuts::setFromCellCutter(const Foam::cellLooper&, const Foam::List<Foam::refineCell>&)
    in file meshCut/cellCuts/cellCuts.C at line 2393
    Found loop on cell 2169 that resulted in an unexpected bad cut.
    Suggestions:
      - Turn on the debug switch for 'cellCuts' to get geometry files that identify this cell.
      - Also keep in mind to check the defined reference directions, as these are most likely the origin of the problem.

--> FOAM Warning : 
    From function void Foam::cellCuts::setFromCellCutter(const Foam::cellLooper&, const Foam::List<Foam::refineCell>&)
    in file meshCut/cellCuts/cellCuts.C at line 2393
    Found loop on cell 2171 that resulted in an unexpected bad cut.
    Suggestions:
      - Turn on the debug switch for 'cellCuts' to get geometry files that identify this cell.
      - Also keep in mind to check the defined reference directions, as these are most likely the origin of the problem.

--> FOAM Warning : 
    From function void Foam::cellCuts::setFromCellCutter(const Foam::cellLooper&, const Foam::List<Foam::refineCell>&)
    in file meshCut/cellCuts/cellCuts.C at line 2393
    Found loop on cell 2174 that resulted in an unexpected bad cut.
    Suggestions:
      - Turn on the debug switch for 'cellCuts' to get geometry files that identify this cell.
      - Also keep in mind to check the defined reference directions, as these are most likely the origin of the problem.

--> FOAM Warning : 
    From function void Foam::cellCuts::setFromCellCutter(const Foam::cellLooper&, const Foam::List<Foam::refineCell>&)
    in file meshCut/cellCuts/cellCuts.C at line 2393
    Found loop on cell 2180 that resulted in an unexpected bad cut.
    Suggestions:
      - Turn on the debug switch for 'cellCuts' to get geometry files that identify this cell.
      - Also keep in mind to check the defined reference directions, as these are most likely the origin of the problem.

--> FOAM Warning : 
    From function void Foam::cellCuts::setFromCellCutter(const Foam::cellLooper&, const Foam::List<Foam::refineCell>&)
    in file meshCut/cellCuts/cellCuts.C at line 2393
    Found loop on cell 2182 that resulted in an unexpected bad cut.
    Suggestions:
      - Turn on the debug switch for 'cellCuts' to get geometry files that identify this cell.
      - Also keep in mind to check the defined reference directions, as these are most likely the origin of the problem.

--> FOAM Warning : 
    From function void Foam::cellCuts::setFromCellCutter(const Foam::cellLooper&, const Foam::List<Foam::refineCell>&)
    in file meshCut/cellCuts/cellCuts.C at line 2393
    Found loop on cell 2185 that resulted in an unexpected bad cut.
    Suggestions:
      - Turn on the debug switch for 'cellCuts' to get geometry files that identify this cell.
      - Also keep in mind to check the defined reference directions, as these are most likely the origin of the problem.

--> FOAM Warning : 
    From function void Foam::cellCuts::setFromCellCutter(const Foam::cellLooper&, const Foam::List<Foam::refineCell>&)
    in file meshCut/cellCuts/cellCuts.C at line 2393
    Found loop on cell 2191 that resulted in an unexpected bad cut.
    Suggestions:
      - Turn on the debug switch for 'cellCuts' to get geometry files that identify this cell.
      - Also keep in mind to check the defined reference directions, as these are most likely the origin of the problem.

--> FOAM Warning : 
    From function void Foam::cellCuts::setFromCellCutter(const Foam::cellLooper&, const Foam::List<Foam::refineCell>&)
    in file meshCut/cellCuts/cellCuts.C at line 2393
    Found loop on cell 2193 that resulted in an unexpected bad cut.
    Suggestions:
      - Turn on the debug switch for 'cellCuts' to get geometry files that identify this cell.
      - Also keep in mind to check the defined reference directions, as these are most likely the origin of the problem.

--> FOAM Warning : 
    From function void Foam::cellCuts::setFromCellCutter(const Foam::cellLooper&, const Foam::List<Foam::refineCell>&)
    in file meshCut/cellCuts/cellCuts.C at line 2393
    Found loop on cell 2202 that resulted in an unexpected bad cut.
    Suggestions:
      - Turn on the debug switch for 'cellCuts' to get geometry files that identify this cell.
      - Also keep in mind to check the defined reference directions, as these are most likely the origin of the problem.

--> FOAM Warning : 
    From function void Foam::cellCuts::setFromCellCutter(const Foam::cellLooper&, const Foam::List<Foam::refineCell>&)
    in file meshCut/cellCuts/cellCuts.C at line 2393
    Found loop on cell 2204 that resulted in an unexpected bad cut.
    Suggestions:
      - Turn on the debug switch for 'cellCuts' to get geometry files that identify this cell.
      - Also keep in mind to check the defined reference directions, as these are most likely the origin of the problem.

--> FOAM Warning : 
    From function void Foam::cellCuts::setFromCellCutter(const Foam::cellLooper&, const Foam::List<Foam::refineCell>&)
    in file meshCut/cellCuts/cellCuts.C at line 2393
    Found loop on cell 2213 that resulted in an unexpected bad cut.
    Suggestions:
      - Turn on the debug switch for 'cellCuts' to get geometry files that identify this cell.
      - Also keep in mind to check the defined reference directions, as these are most likely the origin of the problem.

--> FOAM Warning : 
    From function void Foam::cellCuts::setFromCellCutter(const Foam::cellLooper&, const Foam::List<Foam::refineCell>&)
    in file meshCut/cellCuts/cellCuts.C at line 2393
    Found loop on cell 2215 that resulted in an unexpected bad cut.
    Suggestions:
      - Turn on the debug switch for 'cellCuts' to get geometry files that identify this cell.
      - Also keep in mind to check the defined reference directions, as these are most likely the origin of the problem.

--> FOAM Warning : 
    From function void Foam::cellCuts::setFromCellCutter(const Foam::cellLooper&, const Foam::List<Foam::refineCell>&)
    in file meshCut/cellCuts/cellCuts.C at line 2393
    Found loop on cell 2224 that resulted in an unexpected bad cut.
    Suggestions:
      - Turn on the debug switch for 'cellCuts' to get geometry files that identify this cell.
      - Also keep in mind to check the defined reference directions, as these are most likely the origin of the problem.

--> FOAM Warning : 
    From function void Foam::cellCuts::setFromCellCutter(const Foam::cellLooper&, const Foam::List<Foam::refineCell>&)
    in file meshCut/cellCuts/cellCuts.C at line 2393
    Found loop on cell 2226 that resulted in an unexpected bad cut.
    Suggestions:
      - Turn on the debug switch for 'cellCuts' to get geometry files that identify this cell.
      - Also keep in mind to check the defined reference directions, as these are most likely the origin of the problem.

--> FOAM Warning : 
    From function void Foam::cellCuts::setFromCellCutter(const Foam::cellLooper&, const Foam::List<Foam::refineCell>&)
    in file meshCut/cellCuts/cellCuts.C at line 2393
    Found loop on cell 2235 that resulted in an unexpected bad cut.
    Suggestions:
      - Turn on the debug switch for 'cellCuts' to get geometry files that identify this cell.
      - Also keep in mind to check the defined reference directions, as these are most likely the origin of the problem.

--> FOAM Warning : 
    From function void Foam::cellCuts::setFromCellCutter(const Foam::cellLooper&, const Foam::List<Foam::refineCell>&)
    in file meshCut/cellCuts/cellCuts.C at line 2393
    Found loop on cell 2237 that resulted in an unexpected bad cut.
    Suggestions:
      - Turn on the debug switch for 'cellCuts' to get geometry files that identify this cell.
      - Also keep in mind to check the defined reference directions, as these are most likely the origin of the problem.

--> FOAM Warning : 
    From function void Foam::cellCuts::setFromCellCutter(const Foam::cellLooper&, const Foam::List<Foam::refineCell>&)
    in file meshCut/cellCuts/cellCuts.C at line 2393
    Found loop on cell 2246 that resulted in an unexpected bad cut.
    Suggestions:
      - Turn on the debug switch for 'cellCuts' to get geometry files that identify this cell.
      - Also keep in mind to check the defined reference directions, as these are most likely the origin of the problem.

--> FOAM Warning : 
    From function void Foam::cellCuts::setFromCellCutter(const Foam::cellLooper&, const Foam::List<Foam::refineCell>&)
    in file meshCut/cellCuts/cellCuts.C at line 2393
    Found loop on cell 2248 that resulted in an unexpected bad cut.
    Suggestions:
      - Turn on the debug switch for 'cellCuts' to get geometry files that identify this cell.
      - Also keep in mind to check the defined reference directions, as these are most likely the origin of the problem.

--> FOAM Warning : 
    From function void Foam::cellCuts::setFromCellCutter(const Foam::cellLooper&, const Foam::List<Foam::refineCell>&)
    in file meshCut/cellCuts/cellCuts.C at line 2393
    Found loop on cell 2257 that resulted in an unexpected bad cut.
    Suggestions:
      - Turn on the debug switch for 'cellCuts' to get geometry files that identify this cell.
      - Also keep in mind to check the defined reference directions, as these are most likely the origin of the problem.

--> FOAM Warning : 
    From function void Foam::cellCuts::setFromCellCutter(const Foam::cellLooper&, const Foam::List<Foam::refineCell>&)
    in file meshCut/cellCuts/cellCuts.C at line 2393
    Found loop on cell 2259 that resulted in an unexpected bad cut.
    Suggestions:
      - Turn on the debug switch for 'cellCuts' to get geometry files that identify this cell.
      - Also keep in mind to check the defined reference directions, as these are most likely the origin of the problem.

--> FOAM Warning : 
    From function void Foam::cellCuts::setFromCellCutter(const Foam::cellLooper&, const Foam::List<Foam::refineCell>&)
    in file meshCut/cellCuts/cellCuts.C at line 2393
    Found loop on cell 2268 that resulted in an unexpected bad cut.
    Suggestions:
      - Turn on the debug switch for 'cellCuts' to get geometry files that identify this cell.
      - Also keep in mind to check the defined reference directions, as these are most likely the origin of the problem.

--> FOAM Warning : 
    From function void Foam::cellCuts::setFromCellCutter(const Foam::cellLooper&, const Foam::List<Foam::refineCell>&)
    in file meshCut/cellCuts/cellCuts.C at line 2393
    Found loop on cell 2270 that resulted in an unexpected bad cut.
    Suggestions:
      - Turn on the debug switch for 'cellCuts' to get geometry files that identify this cell.
      - Also keep in mind to check the defined reference directions, as these are most likely the origin of the problem.

--> FOAM Warning : 
    From function void Foam::cellCuts::setFromCellCutter(const Foam::cellLooper&, const Foam::List<Foam::refineCell>&)
    in file meshCut/cellCuts/cellCuts.C at line 2393
    Found loop on cell 2279 that resulted in an unexpected bad cut.
    Suggestions:
      - Turn on the debug switch for 'cellCuts' to get geometry files that identify this cell.
      - Also keep in mind to check the defined reference directions, as these are most likely the origin of the problem.

--> FOAM Warning : 
    From function void Foam::cellCuts::setFromCellCutter(const Foam::cellLooper&, const Foam::List<Foam::refineCell>&)
    in file meshCut/cellCuts/cellCuts.C at line 2393
    Found loop on cell 2281 that resulted in an unexpected bad cut.
    Suggestions:
      - Turn on the debug switch for 'cellCuts' to get geometry files that identify this cell.
      - Also keep in mind to check the defined reference directions, as these are most likely the origin of the problem.

--> FOAM Warning : 
    From function void Foam::cellCuts::setFromCellCutter(const Foam::cellLooper&, const Foam::List<Foam::refineCell>&)
    in file meshCut/cellCuts/cellCuts.C at line 2393
    Found loop on cell 2290 that resulted in an unexpected bad cut.
    Suggestions:
      - Turn on the debug switch for 'cellCuts' to get geometry files that identify this cell.
[...]
    Suggestions:
      - Turn on the debug switch for 'cellCuts' to get geometry files that identify this cell.
      - Also keep in mind to check the defined reference directions, as these are most likely the origin of the problem.

--> FOAM Warning : 
    From function void Foam::cellCuts::setFromCellCutter(const Foam::cellLooper&, const Foam::List<Foam::refineCell>&)
    in file meshCut/cellCuts/cellCuts.C at line 2393
    Found loop on cell 15003 that resulted in an unexpected bad cut.
    Suggestions:
      - Turn on the debug switch for 'cellCuts' to get geometry files that identify this cell.
      - Also keep in mind to check the defined reference directions, as these are most likely the origin of the problem.

--> FOAM Warning : 
    From function void Foam::cellCuts::setFromCellCutter(const Foam::cellLooper&, const Foam::List<Foam::refineCell>&)
    in file meshCut/cellCuts/cellCuts.C at line 2393
    Found loop on cell 15006 that resulted in an unexpected bad cut.
    Suggestions:
      - Turn on the debug switch for 'cellCuts' to get geometry files that identify this cell.
      - Also keep in mind to check the defined reference directions, as these are most likely the origin of the problem.

--> FOAM Warning : 
    From function void Foam::cellCuts::setFromCellCutter(const Foam::cellLooper&, const Foam::List<Foam::refineCell>&)
    in file meshCut/cellCuts/cellCuts.C at line 2393
    Found loop on cell 15008 that resulted in an unexpected bad cut.
    Suggestions:
      - Turn on the debug switch for 'cellCuts' to get geometry files that identify this cell.
      - Also keep in mind to check the defined reference directions, as these are most likely the origin of the problem.

--> FOAM Warning : 
    From function void Foam::cellCuts::setFromCellCutter(const Foam::cellLooper&, const Foam::List<Foam::refineCell>&)
    in file meshCut/cellCuts/cellCuts.C at line 2393
    Found loop on cell 15011 that resulted in an unexpected bad cut.
    Suggestions:
      - Turn on the debug switch for 'cellCuts' to get geometry files that identify this cell.
      - Also keep in mind to check the defined reference directions, as these are most likely the origin of the problem.

--> FOAM Warning : 
    From function void Foam::cellCuts::setFromCellCutter(const Foam::cellLooper&, const Foam::List<Foam::refineCell>&)
    in file meshCut/cellCuts/cellCuts.C at line 2393
    Found loop on cell 15013 that resulted in an unexpected bad cut.
    Suggestions:
      - Turn on the debug switch for 'cellCuts' to get geometry files that identify this cell.
      - Also keep in mind to check the defined reference directions, as these are most likely the origin of the problem.

--> FOAM Warning : 
    From function void Foam::cellCuts::setFromCellCutter(const Foam::cellLooper&, const Foam::List<Foam::refineCell>&)
    in file meshCut/cellCuts/cellCuts.C at line 2393
    Found loop on cell 15016 that resulted in an unexpected bad cut.
    Suggestions:
      - Turn on the debug switch for 'cellCuts' to get geometry files that identify this cell.
      - Also keep in mind to check the defined reference directions, as these are most likely the origin of the problem.

--> FOAM Warning : 
    From function void Foam::cellCuts::setFromCellCutter(const Foam::cellLooper&, const Foam::List<Foam::refineCell>&)
    in file meshCut/cellCuts/cellCuts.C at line 2393
    Found loop on cell 15018 that resulted in an unexpected bad cut.
    Suggestions:
      - Turn on the debug switch for 'cellCuts' to get geometry files that identify this cell.
      - Also keep in mind to check the defined reference directions, as these are most likely the origin of the problem.

--> FOAM Warning : 
    From function void Foam::cellCuts::setFromCellCutter(const Foam::cellLooper&, const Foam::List<Foam::refineCell>&)
    in file meshCut/cellCuts/cellCuts.C at line 2393
    Found loop on cell 15021 that resulted in an unexpected bad cut.
    Suggestions:
      - Turn on the debug switch for 'cellCuts' to get geometry files that identify this cell.
      - Also keep in mind to check the defined reference directions, as these are most likely the origin of the problem.

--> FOAM Warning : 
    From function void Foam::cellCuts::setFromCellCutter(const Foam::cellLooper&, const Foam::List<Foam::refineCell>&)
    in file meshCut/cellCuts/cellCuts.C at line 2393
    Found loop on cell 15023 that resulted in an unexpected bad cut.
    Suggestions:
      - Turn on the debug switch for 'cellCuts' to get geometry files that identify this cell.
      - Also keep in mind to check the defined reference directions, as these are most likely the origin of the problem.

--> FOAM Warning : 
    From function void Foam::cellCuts::setFromCellCutter(const Foam::cellLooper&, const Foam::List<Foam::refineCell>&)
    in file meshCut/cellCuts/cellCuts.C at line 2393
    Found loop on cell 15026 that resulted in an unexpected bad cut.
    Suggestions:
      - Turn on the debug switch for 'cellCuts' to get geometry files that identify this cell.
      - Also keep in mind to check the defined reference directions, as these are most likely the origin of the problem.

--> FOAM Warning : 
    From function void Foam::cellCuts::setFromCellCutter(const Foam::cellLooper&, const Foam::List<Foam::refineCell>&)
    in file meshCut/cellCuts/cellCuts.C at line 2393
    Found loop on cell 15028 that resulted in an unexpected bad cut.
    Suggestions:
      - Turn on the debug switch for 'cellCuts' to get geometry files that identify this cell.
      - Also keep in mind to check the defined reference directions, as these are most likely the origin of the problem.

--> FOAM Warning : 
    From function void Foam::cellCuts::setFromCellCutter(const Foam::cellLooper&, const Foam::List<Foam::refineCell>&)
    in file meshCut/cellCuts/cellCuts.C at line 2393
    Found loop on cell 15031 that resulted in an unexpected bad cut.
    Suggestions:
      - Turn on the debug switch for 'cellCuts' to get geometry files that identify this cell.
      - Also keep in mind to check the defined reference directions, as these are most likely the origin of the problem.

--> FOAM Warning : 
    From function void Foam::cellCuts::setFromCellCutter(const Foam::cellLooper&, const Foam::List<Foam::refineCell>&)
    in file meshCut/cellCuts/cellCuts.C at line 2393
    Found loop on cell 15033 that resulted in an unexpected bad cut.
    Suggestions:
      - Turn on the debug switch for 'cellCuts' to get geometry files that identify this cell.
      - Also keep in mind to check the defined reference directions, as these are most likely the origin of the problem.

--> FOAM Warning : 
    From function void Foam::cellCuts::setFromCellCutter(const Foam::cellLooper&, const Foam::List<Foam::refineCell>&)
    in file meshCut/cellCuts/cellCuts.C at line 2393
    Found loop on cell 15036 that resulted in an unexpected bad cut.
    Suggestions:
      - Turn on the debug switch for 'cellCuts' to get geometry files that identify this cell.
      - Also keep in mind to check the defined reference directions, as these are most likely the origin of the problem.

--> FOAM Warning : 
    From function void Foam::cellCuts::setFromCellCutter(const Foam::cellLooper&, const Foam::List<Foam::refineCell>&)
    in file meshCut/cellCuts/cellCuts.C at line 2393
    Found loop on cell 15038 that resulted in an unexpected bad cut.
    Suggestions:
      - Turn on the debug switch for 'cellCuts' to get geometry files that identify this cell.
      - Also keep in mind to check the defined reference directions, as these are most likely the origin of the problem.

--> FOAM Warning : 
    From function void Foam::cellCuts::setFromCellCutter(const Foam::cellLooper&, const Foam::List<Foam::refineCell>&)
    in file meshCut/cellCuts/cellCuts.C at line 2393
    Found loop on cell 15041 that resulted in an unexpected bad cut.
    Suggestions:
      - Turn on the debug switch for 'cellCuts' to get geometry files that identify this cell.
      - Also keep in mind to check the defined reference directions, as these are most likely the origin of the problem.

--> FOAM Warning : 
    From function void Foam::cellCuts::setFromCellCutter(const Foam::cellLooper&, const Foam::List<Foam::refineCell>&)
    in file meshCut/cellCuts/cellCuts.C at line 2393
    Found loop on cell 15043 that resulted in an unexpected bad cut.
    Suggestions:
      - Turn on the debug switch for 'cellCuts' to get geometry files that identify this cell.
      - Also keep in mind to check the defined reference directions, as these are most likely the origin of the problem.

--> FOAM Warning : 
    From function void Foam::cellCuts::setFromCellCutter(const Foam::cellLooper&, const Foam::List<Foam::refineCell>&)
    in file meshCut/cellCuts/cellCuts.C at line 2393
    Found loop on cell 15046 that resulted in an unexpected bad cut.
    Suggestions:
      - Turn on the debug switch for 'cellCuts' to get geometry files that identify this cell.
      - Also keep in mind to check the defined reference directions, as these are most likely the origin of the problem.

--> FOAM Warning : 
    From function void Foam::cellCuts::setFromCellCutter(const Foam::cellLooper&, const Foam::List<Foam::refineCell>&)
    in file meshCut/cellCuts/cellCuts.C at line 2393
    Found loop on cell 15048 that resulted in an unexpected bad cut.
    Suggestions:
      - Turn on the debug switch for 'cellCuts' to get geometry files that identify this cell.
      - Also keep in mind to check the defined reference directions, as these are most likely the origin of the problem.

--> FOAM Warning : 
    From function void Foam::cellCuts::setFromCellCutter(const Foam::cellLooper&, const Foam::List<Foam::refineCell>&)
    in file meshCut/cellCuts/cellCuts.C at line 2393
    Found loop on cell 15051 that resulted in an unexpected bad cut.
    Suggestions:
      - Turn on the debug switch for 'cellCuts' to get geometry files that identify this cell.
      - Also keep in mind to check the defined reference directions, as these are most likely the origin of the problem.

--> FOAM Warning : 
    From function void Foam::cellCuts::setFromCellCutter(const Foam::cellLooper&, const Foam::List<Foam::refineCell>&)
    in file meshCut/cellCuts/cellCuts.C at line 2393
    Found loop on cell 15053 that resulted in an unexpected bad cut.
    Suggestions:
      - Turn on the debug switch for 'cellCuts' to get geometry files that identify this cell.
      - Also keep in mind to check the defined reference directions, as these are most likely the origin of the problem.

--> FOAM Warning : 
    From function void Foam::cellCuts::setFromCellCutter(const Foam::cellLooper&, const Foam::List<Foam::refineCell>&)
    in file meshCut/cellCuts/cellCuts.C at line 2393
    Found loop on cell 15056 that resulted in an unexpected bad cut.
    Suggestions:
      - Turn on the debug switch for 'cellCuts' to get geometry files that identify this cell.
      - Also keep in mind to check the defined reference directions, as these are most likely the origin of the problem.

--> FOAM Warning : 
    From function void Foam::cellCuts::setFromCellCutter(const Foam::cellLooper&, const Foam::List<Foam::refineCell>&)
    in file meshCut/cellCuts/cellCuts.C at line 2393
    Found loop on cell 15058 that resulted in an unexpected bad cut.
    Suggestions:
      - Turn on the debug switch for 'cellCuts' to get geometry files that identify this cell.
      - Also keep in mind to check the defined reference directions, as these are most likely the origin of the problem.

--> FOAM Warning : 
    From function void Foam::cellCuts::setFromCellCutter(const Foam::cellLooper&, const Foam::List<Foam::refineCell>&)
    in file meshCut/cellCuts/cellCuts.C at line 2393
    Found loop on cell 15061 that resulted in an unexpected bad cut.
    Suggestions:
      - Turn on the debug switch for 'cellCuts' to get geometry files that identify this cell.
      - Also keep in mind to check the defined reference directions, as these are most likely the origin of the problem.

--> FOAM Warning : 
    From function void Foam::cellCuts::setFromCellCutter(const Foam::cellLooper&, const Foam::List<Foam::refineCell>&)
    in file meshCut/cellCuts/cellCuts.C at line 2393
    Found loop on cell 15063 that resulted in an unexpected bad cut.
    Suggestions:
      - Turn on the debug switch for 'cellCuts' to get geometry files that identify this cell.
      - Also keep in mind to check the defined reference directions, as these are most likely the origin of the problem.

--> FOAM Warning : 
    From function void Foam::cellCuts::setFromCellCutter(const Foam::cellLooper&, const Foam::List<Foam::refineCell>&)
    in file meshCut/cellCuts/cellCuts.C at line 2393
    Found loop on cell 15066 that resulted in an unexpected bad cut.
    Suggestions:
      - Turn on the debug switch for 'cellCuts' to get geometry files that identify this cell.
      - Also keep in mind to check the defined reference directions, as these are most likely the origin of the problem.

--> FOAM Warning : 
    From function void Foam::cellCuts::setFromCellCutter(const Foam::cellLooper&, const Foam::List<Foam::refineCell>&)
    in file meshCut/cellCuts/cellCuts.C at line 2393
    Found loop on cell 15068 that resulted in an unexpected bad cut.
    Suggestions:
      - Turn on the debug switch for 'cellCuts' to get geometry files that identify this cell.
      - Also keep in mind to check the defined reference directions, as these are most likely the origin of the problem.

--> FOAM Warning : 
    From function void Foam::cellCuts::setFromCellCutter(const Foam::cellLooper&, const Foam::List<Foam::refineCell>&)
    in file meshCut/cellCuts/cellCuts.C at line 2393
    Found loop on cell 15071 that resulted in an unexpected bad cut.
    Suggestions:
      - Turn on the debug switch for 'cellCuts' to get geometry files that identify this cell.
      - Also keep in mind to check the defined reference directions, as these are most likely the origin of the problem.

--> FOAM Warning : 
    From function void Foam::cellCuts::setFromCellCutter(const Foam::cellLooper&, const Foam::List<Foam::refineCell>&)
    in file meshCut/cellCuts/cellCuts.C at line 2393
    Found loop on cell 15073 that resulted in an unexpected bad cut.
    Suggestions:
      - Turn on the debug switch for 'cellCuts' to get geometry files that identify this cell.
      - Also keep in mind to check the defined reference directions, as these are most likely the origin of the problem.

--> FOAM Warning : 
    From function void Foam::cellCuts::setFromCellCutter(const Foam::cellLooper&, const Foam::List<Foam::refineCell>&)
    in file meshCut/cellCuts/cellCuts.C at line 2393
    Found loop on cell 15076 that resulted in an unexpected bad cut.
    Suggestions:
      - Turn on the debug switch for 'cellCuts' to get geometry files that identify this cell.
      - Also keep in mind to check the defined reference directions, as these are most likely the origin of the problem.

--> FOAM Warning : 
    From function void Foam::cellCuts::setFromCellCutter(const Foam::cellLooper&, const Foam::List<Foam::refineCell>&)
    in file meshCut/cellCuts/cellCuts.C at line 2393
    Found loop on cell 15078 that resulted in an unexpected bad cut.
    Suggestions:
      - Turn on the debug switch for 'cellCuts' to get geometry files that identify this cell.
      - Also keep in mind to check the defined reference directions, as these are most likely the origin of the problem.

--> FOAM Warning : 
    From function void Foam::cellCuts::setFromCellCutter(const Foam::cellLooper&, const Foam::List<Foam::refineCell>&)
    in file meshCut/cellCuts/cellCuts.C at line 2393
    Found loop on cell 15081 that resulted in an unexpected bad cut.
    Suggestions:
      - Turn on the debug switch for 'cellCuts' to get geometry files that identify this cell.
      - Also keep in mind to check the defined reference directions, as these are most likely the origin of the problem.

--> FOAM Warning : 
    From function void Foam::cellCuts::setFromCellCutter(const Foam::cellLooper&, const Foam::List<Foam::refineCell>&)
    in file meshCut/cellCuts/cellCuts.C at line 2393
    Found loop on cell 15083 that resulted in an unexpected bad cut.
    Suggestions:
      - Turn on the debug switch for 'cellCuts' to get geometry files that identify this cell.
      - Also keep in mind to check the defined reference directions, as these are most likely the origin of the problem.

--> FOAM Warning : 
    From function void Foam::cellCuts::setFromCellCutter(const Foam::cellLooper&, const Foam::List<Foam::refineCell>&)
    in file meshCut/cellCuts/cellCuts.C at line 2393
    Found loop on cell 15086 that resulted in an unexpected bad cut.
    Suggestions:
      - Turn on the debug switch for 'cellCuts' to get geometry files that identify this cell.
      - Also keep in mind to check the defined reference directions, as these are most likely the origin of the problem.

--> FOAM Warning : 
    From function void Foam::cellCuts::setFromCellCutter(const Foam::cellLooper&, const Foam::List<Foam::refineCell>&)
    in file meshCut/cellCuts/cellCuts.C at line 2393
    Found loop on cell 15088 that resulted in an unexpected bad cut.
    Suggestions:
      - Turn on the debug switch for 'cellCuts' to get geometry files that identify this cell.
      - Also keep in mind to check the defined reference directions, as these are most likely the origin of the problem.

--> FOAM Warning : 
    From function void Foam::cellCuts::setFromCellCutter(const Foam::cellLooper&, const Foam::List<Foam::refineCell>&)
    in file meshCut/cellCuts/cellCuts.C at line 2393
    Found loop on cell 15091 that resulted in an unexpected bad cut.
    Suggestions:
      - Turn on the debug switch for 'cellCuts' to get geometry files that identify this cell.
      - Also keep in mind to check the defined reference directions, as these are most likely the origin of the problem.

--> FOAM Warning : 
    From function void Foam::cellCuts::setFromCellCutter(const Foam::cellLooper&, const Foam::List<Foam::refineCell>&)
    in file meshCut/cellCuts/cellCuts.C at line 2393
    Found loop on cell 15093 that resulted in an unexpected bad cut.
    Suggestions:
      - Turn on the debug switch for 'cellCuts' to get geometry files that identify this cell.
      - Also keep in mind to check the defined reference directions, as these are most likely the origin of the problem.

--> FOAM Warning : 
    From function void Foam::cellCuts::setFromCellCutter(const Foam::cellLooper&, const Foam::List<Foam::refineCell>&)
    in file meshCut/cellCuts/cellCuts.C at line 2393
    Found loop on cell 15096 that resulted in an unexpected bad cut.
    Suggestions:
      - Turn on the debug switch for 'cellCuts' to get geometry files that identify this cell.
      - Also keep in mind to check the defined reference directions, as these are most likely the origin of the problem.

--> FOAM Warning : 
    From function void Foam::cellCuts::setFromCellCutter(const Foam::cellLooper&, const Foam::List<Foam::refineCell>&)
    in file meshCut/cellCuts/cellCuts.C at line 2393
    Found loop on cell 15098 that resulted in an unexpected bad cut.
    Suggestions:
      - Turn on the debug switch for 'cellCuts' to get geometry files that identify this cell.
      - Also keep in mind to check the defined reference directions, as these are most likely the origin of the problem.

Writing refined cells (30080) to cellSet "constant/polyMesh/sets/refinedCells"

Writing map from new to old cell to "0/polyMesh/cellMap"

Mesh edge statistics:
    x aligned :  number:3071	minLen:0.034117207	maxLen:1.4216329
    y aligned :  number:3328	minLen:0.034463217	maxLen:1.435967
    z aligned :  number:36080	minLen:0.020989003	maxLen:1.3298835
    other     :  number:60662	minLen:0.034117206	maxLen:1.435967

End

