/*---------------------------------------------------------------------------*\
  =========                 |
  \\      /  F ield         | OpenFOAM: The Open Source CFD Toolbox
   \\    /   O peration     | Website:  https://openfoam.org
    \\  /    A nd           | Version:  10
     \\/     M anipulation  |
\*---------------------------------------------------------------------------*/
Build  : 10-c4cf895ad8fa
Exec   : simpleFoam
Date   : Jan 29 2024
Time   : 21:19:18
Host   : "chan-X570-AORUS-ELITE"
PID    : 7449
I/O    : uncollated
Case   : /home/chan/OpenFOAM/chan-10/run/tutorials/incompressible/pimpleFoam/RAS/wingMotion/wingMotion2D_simpleFoam
nProcs : 1
sigFpe : Enabling floating point exception trapping (FOAM_SIGFPE).
fileModificationChecking : Monitoring run-time modified files using timeStampMaster (fileModificationSkew 10)
allowSystemOperations : Allowing user-supplied system call operations

// * * * * * * * * * * * * * * * * * * * * * * * * * * * * * * * * * * * * * //
Create time

Create mesh for time = 0


SIMPLE: No convergence criteria found

Reading field p

Reading field U

Reading/calculating face flux field phi

Selecting viscosity model constant
Selecting turbulence model type RAS
Selecting RAS turbulence model kOmegaSST
Selecting patchDistMethod meshWave
RAS
{
    model           kOmegaSST;
    turbulence      on;
    printCoeffs     on;
    alphaK1         0.85;
    alphaK2         1;
    alphaOmega1     0.5;
    alphaOmega2     0.856;
    gamma1          0.555556;
    gamma2          0.44;
    beta1           0.075;
    beta2           0.0828;
    betaStar        0.09;
    a1              0.31;
    b1              1;
    c1              10;
    F3              false;
}

No MRF models present

No fvModels present
No fvConstraints present

Starting time loop

forces forces:
    Not including porosity effects
forces forces write:
    sum of forces:
        pressure : (0 0 0)
        viscous  : (1.74603 0.0497862 1.80889e-20)
        porous   : (0 0 0)
    sum of moments:
        pressure : (0 0 0)
        viscous  : (-1.66912e-19 3.8796e-18 0.0137121)
        porous   : (0 0 0)

Time = 1s

smoothSolver:  Solving for Ux, Initial residual = 1, Final residual = 0.0713242, No Iterations 3
smoothSolver:  Solving for Uy, Initial residual = 1, Final residual = 0.0608535, No Iterations 5
GAMG:  Solving for p, Initial residual = 1, Final residual = 0.0530017, No Iterations 7
time step continuity errors : sum local = 0.0629729, global = -0.0108486, cumulative = -0.0108486
smoothSolver:  Solving for omega, Initial residual = 0.0684171, Final residual = 0.00374286, No Iterations 4
smoothSolver:  Solving for k, Initial residual = 1, Final residual = 0.0635516, No Iterations 4
ExecutionTime = 0.03064 s  ClockTime = 0 s

Time = 2s

smoothSolver:  Solving for Ux, Initial residual = 0.728889, Final residual = 0.050241, No Iterations 4
smoothSolver:  Solving for Uy, Initial residual = 0.70621, Final residual = 0.0521517, No Iterations 4
GAMG:  Solving for p, Initial residual = 0.84681, Final residual = 0.0841653, No Iterations 2
time step continuity errors : sum local = 2.78197, global = -0.0120922, cumulative = -0.0229409
smoothSolver:  Solving for omega, Initial residual = 0.0203522, Final residual = 0.00132507, No Iterations 4
smoothSolver:  Solving for k, Initial residual = 0.567243, Final residual = 0.0297802, No Iterations 4
ExecutionTime = 0.038841 s  ClockTime = 0 s

Time = 3s

smoothSolver:  Solving for Ux, Initial residual = 0.14002, Final residual = 0.0121244, No Iterations 5
smoothSolver:  Solving for Uy, Initial residual = 0.107748, Final residual = 0.0088928, No Iterations 4
GAMG:  Solving for p, Initial residual = 0.867364, Final residual = 0.0753275, No Iterations 3
time step continuity errors : sum local = 3.07384, global = 0.0173436, cumulative = -0.00559731
smoothSolver:  Solving for omega, Initial residual = 0.0655547, Final residual = 0.00504513, No Iterations 4
smoothSolver:  Solving for k, Initial residual = 0.118206, Final residual = 0.00637043, No Iterations 4
ExecutionTime = 0.047296 s  ClockTime = 0 s

Time = 4s

smoothSolver:  Solving for Ux, Initial residual = 0.137292, Final residual = 0.01223, No Iterations 3
smoothSolver:  Solving for Uy, Initial residual = 0.0957612, Final residual = 0.00621602, No Iterations 4
GAMG:  Solving for p, Initial residual = 0.725835, Final residual = 0.0606791, No Iterations 5
time step continuity errors : sum local = 1.88944, global = 0.0675477, cumulative = 0.0619503
smoothSolver:  Solving for omega, Initial residual = 0.0578248, Final residual = 0.00433505, No Iterations 3
smoothSolver:  Solving for k, Initial residual = 0.0938315, Final residual = 0.00842712, No Iterations 3
ExecutionTime = 0.056126 s  ClockTime = 0 s

Time = 5s

smoothSolver:  Solving for Ux, Initial residual = 0.239759, Final residual = 0.0161723, No Iterations 4
smoothSolver:  Solving for Uy, Initial residual = 0.297965, Final residual = 0.0204196, No Iterations 4
GAMG:  Solving for p, Initial residual = 0.544822, Final residual = 0.0471635, No Iterations 3
time step continuity errors : sum local = 2.25484, global = 0.111835, cumulative = 0.173785
smoothSolver:  Solving for omega, Initial residual = 0.0513673, Final residual = 0.00454398, No Iterations 3
smoothSolver:  Solving for k, Initial residual = 0.0888664, Final residual = 0.00830568, No Iterations 3
ExecutionTime = 0.065794 s  ClockTime = 0 s

Time = 6s

smoothSolver:  Solving for Ux, Initial residual = 0.243266, Final residual = 0.0149741, No Iterations 4
smoothSolver:  Solving for Uy, Initial residual = 0.339221, Final residual = 0.0196689, No Iterations 4
GAMG:  Solving for p, Initial residual = 0.467655, Final residual = 0.0300669, No Iterations 4
time step continuity errors : sum local = 1.87081, global = 0.136027, cumulative = 0.309813
smoothSolver:  Solving for omega, Initial residual = 0.0465737, Final residual = 0.00402476, No Iterations 3
smoothSolver:  Solving for k, Initial residual = 0.102356, Final residual = 0.00869285, No Iterations 3
ExecutionTime = 0.075227 s  ClockTime = 0 s

Time = 7s

smoothSolver:  Solving for Ux, Initial residual = 0.174462, Final residual = 0.00953711, No Iterations 4
smoothSolver:  Solving for Uy, Initial residual = 0.202166, Final residual = 0.0114834, No Iterations 4
GAMG:  Solving for p, Initial residual = 0.443562, Final residual = 0.0361446, No Iterations 4
time step continuity errors : sum local = 2.05303, global = 0.0987854, cumulative = 0.408598
smoothSolver:  Solving for omega, Initial residual = 0.0451111, Final residual = 0.00259822, No Iterations 3
smoothSolver:  Solving for k, Initial residual = 0.116145, Final residual = 0.00749804, No Iterations 3
ExecutionTime = 0.083815 s  ClockTime = 0 s

Time = 8s

smoothSolver:  Solving for Ux, Initial residual = 0.127518, Final residual = 0.00676774, No Iterations 4
smoothSolver:  Solving for Uy, Initial residual = 0.303137, Final residual = 0.0188769, No Iterations 4
GAMG:  Solving for p, Initial residual = 0.600009, Final residual = 0.0577273, No Iterations 3
time step continuity errors : sum local = 2.83405, global = 0.0372436, cumulative = 0.445842
smoothSolver:  Solving for omega, Initial residual = 0.0422731, Final residual = 0.0026481, No Iterations 3
smoothSolver:  Solving for k, Initial residual = 0.095154, Final residual = 0.00576512, No Iterations 3
ExecutionTime = 0.091852 s  ClockTime = 0 s

Time = 9s

smoothSolver:  Solving for Ux, Initial residual = 0.113659, Final residual = 0.00593525, No Iterations 4
smoothSolver:  Solving for Uy, Initial residual = 0.14535, Final residual = 0.0101999, No Iterations 4
GAMG:  Solving for p, Initial residual = 0.699885, Final residual = 0.0377255, No Iterations 4
time step continuity errors : sum local = 1.62089, global = -0.0852569, cumulative = 0.360585
smoothSolver:  Solving for omega, Initial residual = 0.0450258, Final residual = 0.00201999, No Iterations 3
smoothSolver:  Solving for k, Initial residual = 0.105435, Final residual = 0.00538023, No Iterations 3
ExecutionTime = 0.101277 s  ClockTime = 0 s

Time = 10s

smoothSolver:  Solving for Ux, Initial residual = 0.112103, Final residual = 0.00626331, No Iterations 4
smoothSolver:  Solving for Uy, Initial residual = 0.113372, Final residual = 0.00713769, No Iterations 4
GAMG:  Solving for p, Initial residual = 0.673699, Final residual = 0.058606, No Iterations 3
time step continuity errors : sum local = 2.01285, global = -0.192613, cumulative = 0.167972
smoothSolver:  Solving for omega, Initial residual = 0.0396665, Final residual = 0.00152987, No Iterations 3
smoothSolver:  Solving for k, Initial residual = 0.0863198, Final residual = 0.00344042, No Iterations 3
ExecutionTime = 0.109814 s  ClockTime = 0 s

forces forces write:
    sum of forces:
        pressure : (-223.204 113.703 -3.59269e-16)
        viscous  : (2.22493 -1.66364 -6.16446e-19)
        porous   : (0 0 0)
    sum of moments:
        pressure : (2.95928e-16 -6.48468e-16 -249.886)
        viscous  : (-1.79841e-18 -7.42175e-19 0.511945)
        porous   : (0 0 0)

Time = 11s

smoothSolver:  Solving for Ux, Initial residual = 0.123605, Final residual = 0.0120644, No Iterations 3
smoothSolver:  Solving for Uy, Initial residual = 0.132429, Final residual = 0.00684763, No Iterations 4
GAMG:  Solving for p, Initial residual = 0.712725, Final residual = 0.0637317, No Iterations 3
time step continuity errors : sum local = 2.09873, global = -0.229256, cumulative = -0.0612844
smoothSolver:  Solving for omega, Initial residual = 0.0361383, Final residual = 0.00143216, No Iterations 3
smoothSolver:  Solving for k, Initial residual = 0.0817006, Final residual = 0.00285136, No Iterations 3
ExecutionTime = 0.118277 s  ClockTime = 0 s

Time = 12s

smoothSolver:  Solving for Ux, Initial residual = 0.116835, Final residual = 0.0111216, No Iterations 3
smoothSolver:  Solving for Uy, Initial residual = 0.12365, Final residual = 0.00711868, No Iterations 4
GAMG:  Solving for p, Initial residual = 0.694659, Final residual = 0.0607824, No Iterations 3
time step continuity errors : sum local = 2.00409, global = -0.187412, cumulative = -0.248697
smoothSolver:  Solving for omega, Initial residual = 0.0276132, Final residual = 0.00136308, No Iterations 3
smoothSolver:  Solving for k, Initial residual = 0.0713698, Final residual = 0.00286802, No Iterations 3
ExecutionTime = 0.126972 s  ClockTime = 0 s

Time = 13s

smoothSolver:  Solving for Ux, Initial residual = 0.116368, Final residual = 0.0114205, No Iterations 3
smoothSolver:  Solving for Uy, Initial residual = 0.129356, Final residual = 0.00761605, No Iterations 4
GAMG:  Solving for p, Initial residual = 0.617324, Final residual = 0.0516347, No Iterations 3
time step continuity errors : sum local = 1.70146, global = -0.106049, cumulative = -0.354746
smoothSolver:  Solving for omega, Initial residual = 0.0301732, Final residual = 0.00129137, No Iterations 3
smoothSolver:  Solving for k, Initial residual = 0.064972, Final residual = 0.00264417, No Iterations 3
ExecutionTime = 0.135768 s  ClockTime = 0 s

Time = 14s

smoothSolver:  Solving for Ux, Initial residual = 0.109902, Final residual = 0.0055162, No Iterations 4
smoothSolver:  Solving for Uy, Initial residual = 0.126109, Final residual = 0.00719825, No Iterations 4
GAMG:  Solving for p, Initial residual = 0.650994, Final residual = 0.0466887, No Iterations 3
time step continuity errors : sum local = 1.51002, global = 0.0433328, cumulative = -0.311413
smoothSolver:  Solving for omega, Initial residual = 0.0251688, Final residual = 0.00125807, No Iterations 3
smoothSolver:  Solving for k, Initial residual = 0.0610147, Final residual = 0.00269144, No Iterations 3
ExecutionTime = 0.144385 s  ClockTime = 0 s

Time = 15s

smoothSolver:  Solving for Ux, Initial residual = 0.0898172, Final residual = 0.00447174, No Iterations 4
smoothSolver:  Solving for Uy, Initial residual = 0.0981904, Final residual = 0.00539832, No Iterations 4
GAMG:  Solving for p, Initial residual = 0.696116, Final residual = 0.0469796, No Iterations 3
time step continuity errors : sum local = 1.34778, global = 0.13683, cumulative = -0.174583
smoothSolver:  Solving for omega, Initial residual = 0.0205084, Final residual = 0.00120985, No Iterations 3
smoothSolver:  Solving for k, Initial residual = 0.0459427, Final residual = 0.00238011, No Iterations 3
ExecutionTime = 0.152887 s  ClockTime = 0 s

Time = 16s

smoothSolver:  Solving for Ux, Initial residual = 0.0730854, Final residual = 0.00377635, No Iterations 4
smoothSolver:  Solving for Uy, Initial residual = 0.0883224, Final residual = 0.00481655, No Iterations 4
GAMG:  Solving for p, Initial residual = 0.676534, Final residual = 0.0506566, No Iterations 3
time step continuity errors : sum local = 1.27137, global = 0.178908, cumulative = 0.00432448
smoothSolver:  Solving for omega, Initial residual = 0.0172851, Final residual = 0.00117847, No Iterations 3
smoothSolver:  Solving for k, Initial residual = 0.0397804, Final residual = 0.00213786, No Iterations 3
ExecutionTime = 0.161817 s  ClockTime = 0 s

Time = 17s

smoothSolver:  Solving for Ux, Initial residual = 0.064476, Final residual = 0.0033765, No Iterations 4
smoothSolver:  Solving for Uy, Initial residual = 0.094703, Final residual = 0.00542106, No Iterations 4
GAMG:  Solving for p, Initial residual = 0.700454, Final residual = 0.0570416, No Iterations 3
time step continuity errors : sum local = 1.31461, global = 0.166653, cumulative = 0.170977
smoothSolver:  Solving for omega, Initial residual = 0.0148927, Final residual = 0.00105313, No Iterations 3
smoothSolver:  Solving for k, Initial residual = 0.038623, Final residual = 0.00210211, No Iterations 3
ExecutionTime = 0.170911 s  ClockTime = 1 s

Time = 18s

smoothSolver:  Solving for Ux, Initial residual = 0.0622405, Final residual = 0.0032373, No Iterations 4
smoothSolver:  Solving for Uy, Initial residual = 0.0950417, Final residual = 0.00533363, No Iterations 4
GAMG:  Solving for p, Initial residual = 0.643163, Final residual = 0.0444052, No Iterations 3
time step continuity errors : sum local = 1.06771, global = 0.0709266, cumulative = 0.241904
smoothSolver:  Solving for omega, Initial residual = 0.0131238, Final residual = 0.000977096, No Iterations 3
smoothSolver:  Solving for k, Initial residual = 0.035933, Final residual = 0.00213638, No Iterations 3
ExecutionTime = 0.179504 s  ClockTime = 1 s

Time = 19s

smoothSolver:  Solving for Ux, Initial residual = 0.0618595, Final residual = 0.00335651, No Iterations 4
smoothSolver:  Solving for Uy, Initial residual = 0.09144, Final residual = 0.00510428, No Iterations 4
GAMG:  Solving for p, Initial residual = 0.525282, Final residual = 0.032257, No Iterations 3
time step continuity errors : sum local = 0.863747, global = -0.0181289, cumulative = 0.223775
smoothSolver:  Solving for omega, Initial residual = 0.0119698, Final residual = 0.000944218, No Iterations 3
smoothSolver:  Solving for k, Initial residual = 0.0339716, Final residual = 0.00207651, No Iterations 3
ExecutionTime = 0.18812 s  ClockTime = 1 s

Time = 20s

smoothSolver:  Solving for Ux, Initial residual = 0.0579681, Final residual = 0.00341708, No Iterations 4
smoothSolver:  Solving for Uy, Initial residual = 0.0897792, Final residual = 0.00509807, No Iterations 4
GAMG:  Solving for p, Initial residual = 0.471881, Final residual = 0.0328366, No Iterations 3
time step continuity errors : sum local = 0.959601, global = -0.089123, cumulative = 0.134652
smoothSolver:  Solving for omega, Initial residual = 0.0109665, Final residual = 0.000930547, No Iterations 3
smoothSolver:  Solving for k, Initial residual = 0.0310498, Final residual = 0.00209468, No Iterations 3
ExecutionTime = 0.196409 s  ClockTime = 1 s

forces forces write:
    sum of forces:
        pressure : (-78.8424 402.853 -8.25911e-17)
        viscous  : (1.12803 -0.117416 3.40209e-19)
        porous   : (0 0 0)
    sum of moments:
        pressure : (-1.451e-15 -5.5187e-16 -86.401)
        viscous  : (2.54209e-18 2.70579e-18 -0.00476432)
        porous   : (0 0 0)

Time = 21s

smoothSolver:  Solving for Ux, Initial residual = 0.0454188, Final residual = 0.00282462, No Iterations 4
smoothSolver:  Solving for Uy, Initial residual = 0.0791696, Final residual = 0.00456432, No Iterations 4
GAMG:  Solving for p, Initial residual = 0.46972, Final residual = 0.0362221, No Iterations 3
time step continuity errors : sum local = 0.997709, global = -0.113398, cumulative = 0.0212541
smoothSolver:  Solving for omega, Initial residual = 0.00986699, Final residual = 0.000957724, No Iterations 3
smoothSolver:  Solving for k, Initial residual = 0.0291027, Final residual = 0.00215611, No Iterations 3
ExecutionTime = 0.205617 s  ClockTime = 1 s

Time = 22s

smoothSolver:  Solving for Ux, Initial residual = 0.037482, Final residual = 0.00228472, No Iterations 4
smoothSolver:  Solving for Uy, Initial residual = 0.0754941, Final residual = 0.00423714, No Iterations 4
GAMG:  Solving for p, Initial residual = 0.490746, Final residual = 0.0314941, No Iterations 3
time step continuity errors : sum local = 0.719053, global = -0.0737073, cumulative = -0.0524532
smoothSolver:  Solving for omega, Initial residual = 0.0089855, Final residual = 0.000447383, No Iterations 4
smoothSolver:  Solving for k, Initial residual = 0.026432, Final residual = 0.00209042, No Iterations 3
ExecutionTime = 0.214652 s  ClockTime = 1 s

Time = 23s

smoothSolver:  Solving for Ux, Initial residual = 0.0372725, Final residual = 0.00223374, No Iterations 4
smoothSolver:  Solving for Uy, Initial residual = 0.0803469, Final residual = 0.0047719, No Iterations 4
GAMG:  Solving for p, Initial residual = 0.588881, Final residual = 0.0335621, No Iterations 3
time step continuity errors : sum local = 0.572773, global = -0.0309546, cumulative = -0.0834077
smoothSolver:  Solving for omega, Initial residual = 0.00791584, Final residual = 0.000421722, No Iterations 4
smoothSolver:  Solving for k, Initial residual = 0.0252211, Final residual = 0.00198832, No Iterations 3
ExecutionTime = 0.222931 s  ClockTime = 1 s

Time = 24s

smoothSolver:  Solving for Ux, Initial residual = 0.0349588, Final residual = 0.00212082, No Iterations 4
smoothSolver:  Solving for Uy, Initial residual = 0.0803165, Final residual = 0.00480937, No Iterations 4
GAMG:  Solving for p, Initial residual = 0.702464, Final residual = 0.0527826, No Iterations 3
time step continuity errors : sum local = 0.708763, global = 0.0197103, cumulative = -0.0636974
smoothSolver:  Solving for omega, Initial residual = 0.00717261, Final residual = 0.000390915, No Iterations 4
smoothSolver:  Solving for k, Initial residual = 0.0234967, Final residual = 0.00197484, No Iterations 3
ExecutionTime = 0.231143 s  ClockTime = 1 s

Time = 25s

smoothSolver:  Solving for Ux, Initial residual = 0.0307454, Final residual = 0.00195418, No Iterations 4
smoothSolver:  Solving for Uy, Initial residual = 0.0687346, Final residual = 0.00405345, No Iterations 4
GAMG:  Solving for p, Initial residual = 0.670831, Final residual = 0.0508898, No Iterations 3
time step continuity errors : sum local = 0.645335, global = 0.0413395, cumulative = -0.0223579
smoothSolver:  Solving for omega, Initial residual = 0.00680007, Final residual = 0.000365726, No Iterations 4
smoothSolver:  Solving for k, Initial residual = 0.0216459, Final residual = 0.00196856, No Iterations 3
ExecutionTime = 0.240323 s  ClockTime = 1 s

Time = 26s

smoothSolver:  Solving for Ux, Initial residual = 0.0293564, Final residual = 0.00189361, No Iterations 4
smoothSolver:  Solving for Uy, Initial residual = 0.0564802, Final residual = 0.00328318, No Iterations 4
GAMG:  Solving for p, Initial residual = 0.617836, Final residual = 0.0388139, No Iterations 3
time step continuity errors : sum local = 0.466138, global = 0.0327347, cumulative = 0.0103768
smoothSolver:  Solving for omega, Initial residual = 0.00645497, Final residual = 0.000337964, No Iterations 4
smoothSolver:  Solving for k, Initial residual = 0.0208775, Final residual = 0.00205042, No Iterations 3
ExecutionTime = 0.248993 s  ClockTime = 1 s

Time = 27s

smoothSolver:  Solving for Ux, Initial residual = 0.0294518, Final residual = 0.00189142, No Iterations 4
smoothSolver:  Solving for Uy, Initial residual = 0.0559589, Final residual = 0.00336472, No Iterations 4
GAMG:  Solving for p, Initial residual = 0.540711, Final residual = 0.0328169, No Iterations 3
time step continuity errors : sum local = 0.420648, global = 0.0202052, cumulative = 0.030582
smoothSolver:  Solving for omega, Initial residual = 0.00591934, Final residual = 0.000323885, No Iterations 4
smoothSolver:  Solving for k, Initial residual = 0.020656, Final residual = 0.0010032, No Iterations 4
ExecutionTime = 0.257408 s  ClockTime = 1 s

Time = 28s

smoothSolver:  Solving for Ux, Initial residual = 0.0270878, Final residual = 0.0017307, No Iterations 4
smoothSolver:  Solving for Uy, Initial residual = 0.0562066, Final residual = 0.00352207, No Iterations 4
GAMG:  Solving for p, Initial residual = 0.506904, Final residual = 0.0367626, No Iterations 3
time step continuity errors : sum local = 0.483446, global = 0.00351643, cumulative = 0.0340985
smoothSolver:  Solving for omega, Initial residual = 0.00563223, Final residual = 0.000316888, No Iterations 4
smoothSolver:  Solving for k, Initial residual = 0.019783, Final residual = 0.00101468, No Iterations 4
ExecutionTime = 0.265794 s  ClockTime = 1 s

Time = 29s

smoothSolver:  Solving for Ux, Initial residual = 0.0250722, Final residual = 0.00159401, No Iterations 4
smoothSolver:  Solving for Uy, Initial residual = 0.0510076, Final residual = 0.00317121, No Iterations 4
GAMG:  Solving for p, Initial residual = 0.48986, Final residual = 0.0341112, No Iterations 3
time step continuity errors : sum local = 0.429796, global = 0.00219457, cumulative = 0.036293
smoothSolver:  Solving for omega, Initial residual = 0.00527569, Final residual = 0.000307865, No Iterations 4
smoothSolver:  Solving for k, Initial residual = 0.0189138, Final residual = 0.00101725, No Iterations 4
ExecutionTime = 0.274877 s  ClockTime = 1 s

Time = 30s

smoothSolver:  Solving for Ux, Initial residual = 0.0246406, Final residual = 0.00152138, No Iterations 4
smoothSolver:  Solving for Uy, Initial residual = 0.0458224, Final residual = 0.0028364, No Iterations 4
GAMG:  Solving for p, Initial residual = 0.487016, Final residual = 0.0316195, No Iterations 3
time step continuity errors : sum local = 0.369266, global = 0.00668358, cumulative = 0.0429766
smoothSolver:  Solving for omega, Initial residual = 0.0049714, Final residual = 0.00029372, No Iterations 4
smoothSolver:  Solving for k, Initial residual = 0.0181486, Final residual = 0.00101187, No Iterations 4
ExecutionTime = 0.283587 s  ClockTime = 1 s

forces forces write:
    sum of forces:
        pressure : (-75.1272 180.121 -3.48978e-17)
        viscous  : (0.649433 -0.119313 -1.11227e-19)
        porous   : (0 0 0)
    sum of moments:
        pressure : (-7.39051e-16 -4.30489e-16 -72.0927)
        viscous  : (9.27896e-19 1.12217e-19 0.00776148)
        porous   : (0 0 0)

Time = 31s

smoothSolver:  Solving for Ux, Initial residual = 0.0241856, Final residual = 0.00150865, No Iterations 4
smoothSolver:  Solving for Uy, Initial residual = 0.0416433, Final residual = 0.00264306, No Iterations 4
GAMG:  Solving for p, Initial residual = 0.487931, Final residual = 0.0354608, No Iterations 3
time step continuity errors : sum local = 0.384628, global = 0.00927537, cumulative = 0.052252
smoothSolver:  Solving for omega, Initial residual = 0.00470078, Final residual = 0.000281572, No Iterations 4
smoothSolver:  Solving for k, Initial residual = 0.0174618, Final residual = 0.0009905, No Iterations 4
ExecutionTime = 0.292959 s  ClockTime = 1 s

Time = 32s

smoothSolver:  Solving for Ux, Initial residual = 0.0228811, Final residual = 0.00147198, No Iterations 4
smoothSolver:  Solving for Uy, Initial residual = 0.0412956, Final residual = 0.00270182, No Iterations 4
GAMG:  Solving for p, Initial residual = 0.4714, Final residual = 0.0370546, No Iterations 3
time step continuity errors : sum local = 0.386482, global = 0.00619501, cumulative = 0.058447
smoothSolver:  Solving for omega, Initial residual = 0.00450512, Final residual = 0.000269033, No Iterations 4
smoothSolver:  Solving for k, Initial residual = 0.0166933, Final residual = 0.000939338, No Iterations 4
ExecutionTime = 0.301996 s  ClockTime = 1 s

Time = 33s

smoothSolver:  Solving for Ux, Initial residual = 0.0225406, Final residual = 0.00148069, No Iterations 4
smoothSolver:  Solving for Uy, Initial residual = 0.0418397, Final residual = 0.00272085, No Iterations 4
GAMG:  Solving for p, Initial residual = 0.449853, Final residual = 0.0325393, No Iterations 3
time step continuity errors : sum local = 0.324101, global = -0.00951805, cumulative = 0.0489289
smoothSolver:  Solving for omega, Initial residual = 0.00434511, Final residual = 0.000256462, No Iterations 4
smoothSolver:  Solving for k, Initial residual = 0.0157896, Final residual = 0.000885075, No Iterations 4
ExecutionTime = 0.310699 s  ClockTime = 1 s

Time = 34s

smoothSolver:  Solving for Ux, Initial residual = 0.0227282, Final residual = 0.0014775, No Iterations 4
smoothSolver:  Solving for Uy, Initial residual = 0.0401727, Final residual = 0.00258491, No Iterations 4
GAMG:  Solving for p, Initial residual = 0.438597, Final residual = 0.0281753, No Iterations 3
time step continuity errors : sum local = 0.265093, global = -0.023516, cumulative = 0.0254129
smoothSolver:  Solving for omega, Initial residual = 0.00424679, Final residual = 0.000248411, No Iterations 4
smoothSolver:  Solving for k, Initial residual = 0.0149558, Final residual = 0.0008329, No Iterations 4
ExecutionTime = 0.319389 s  ClockTime = 1 s

Time = 35s

smoothSolver:  Solving for Ux, Initial residual = 0.0222792, Final residual = 0.00143261, No Iterations 4
smoothSolver:  Solving for Uy, Initial residual = 0.0377805, Final residual = 0.00243476, No Iterations 4
GAMG:  Solving for p, Initial residual = 0.460096, Final residual = 0.0319599, No Iterations 3
time step continuity errors : sum local = 0.271547, global = -0.0297439, cumulative = -0.004331
smoothSolver:  Solving for omega, Initial residual = 0.00419762, Final residual = 0.000243666, No Iterations 4
smoothSolver:  Solving for k, Initial residual = 0.0140393, Final residual = 0.000787667, No Iterations 4
ExecutionTime = 0.328146 s  ClockTime = 1 s

Time = 36s

smoothSolver:  Solving for Ux, Initial residual = 0.0210396, Final residual = 0.00135043, No Iterations 4
smoothSolver:  Solving for Uy, Initial residual = 0.0356226, Final residual = 0.00234127, No Iterations 4
GAMG:  Solving for p, Initial residual = 0.494222, Final residual = 0.0392177, No Iterations 3
time step continuity errors : sum local = 0.293433, global = -0.0274692, cumulative = -0.0318002
smoothSolver:  Solving for omega, Initial residual = 0.00412577, Final residual = 0.000238987, No Iterations 4
smoothSolver:  Solving for k, Initial residual = 0.0133282, Final residual = 0.000761864, No Iterations 4
ExecutionTime = 0.337297 s  ClockTime = 1 s

Time = 37s

smoothSolver:  Solving for Ux, Initial residual = 0.0200883, Final residual = 0.00128625, No Iterations 4
smoothSolver:  Solving for Uy, Initial residual = 0.0337368, Final residual = 0.002264, No Iterations 4
GAMG:  Solving for p, Initial residual = 0.511713, Final residual = 0.0417571, No Iterations 3
time step continuity errors : sum local = 0.283461, global = -0.0105858, cumulative = -0.0423859
smoothSolver:  Solving for omega, Initial residual = 0.00402414, Final residual = 0.000231736, No Iterations 4
smoothSolver:  Solving for k, Initial residual = 0.0125781, Final residual = 0.000741665, No Iterations 4
ExecutionTime = 0.347271 s  ClockTime = 1 s

Time = 38s

smoothSolver:  Solving for Ux, Initial residual = 0.0197345, Final residual = 0.00126845, No Iterations 4
smoothSolver:  Solving for Uy, Initial residual = 0.0326747, Final residual = 0.00225623, No Iterations 4
GAMG:  Solving for p, Initial residual = 0.499338, Final residual = 0.0375133, No Iterations 3
time step continuity errors : sum local = 0.241639, global = 0.0126872, cumulative = -0.0296988
smoothSolver:  Solving for omega, Initial residual = 0.00389406, Final residual = 0.000226997, No Iterations 4
smoothSolver:  Solving for k, Initial residual = 0.0118313, Final residual = 0.00071442, No Iterations 4
ExecutionTime = 0.356051 s  ClockTime = 1 s

Time = 39s

smoothSolver:  Solving for Ux, Initial residual = 0.0198574, Final residual = 0.00129016, No Iterations 4
smoothSolver:  Solving for Uy, Initial residual = 0.0319314, Final residual = 0.00221716, No Iterations 4
GAMG:  Solving for p, Initial residual = 0.453384, Final residual = 0.0333304, No Iterations 3
time step continuity errors : sum local = 0.217192, global = 0.027, cumulative = -0.00269876
smoothSolver:  Solving for omega, Initial residual = 0.00380089, Final residual = 0.000221327, No Iterations 4
smoothSolver:  Solving for k, Initial residual = 0.0111425, Final residual = 0.000679444, No Iterations 4
ExecutionTime = 0.365933 s  ClockTime = 1 s

Time = 40s

smoothSolver:  Solving for Ux, Initial residual = 0.019841, Final residual = 0.00131005, No Iterations 4
smoothSolver:  Solving for Uy, Initial residual = 0.0308509, Final residual = 0.00214224, No Iterations 4
GAMG:  Solving for p, Initial residual = 0.387657, Final residual = 0.0283517, No Iterations 3
time step continuity errors : sum local = 0.201315, global = 0.0321924, cumulative = 0.0294937
smoothSolver:  Solving for omega, Initial residual = 0.00373415, Final residual = 0.000216581, No Iterations 4
smoothSolver:  Solving for k, Initial residual = 0.0105399, Final residual = 0.000642598, No Iterations 4
ExecutionTime = 0.375145 s  ClockTime = 1 s

forces forces write:
    sum of forces:
        pressure : (-23.7719 209.558 5.54343e-18)
        viscous  : (0.652662 -0.133621 -1.3398e-19)
        porous   : (0 0 0)
    sum of moments:
        pressure : (-6.63112e-16 -5.4569e-17 -52.7431)
        viscous  : (8.46787e-19 9.85576e-19 0.0216419)
        porous   : (0 0 0)

Time = 41s

smoothSolver:  Solving for Ux, Initial residual = 0.0195918, Final residual = 0.00129817, No Iterations 4
smoothSolver:  Solving for Uy, Initial residual = 0.029813, Final residual = 0.00206332, No Iterations 4
GAMG:  Solving for p, Initial residual = 0.339895, Final residual = 0.024579, No Iterations 3
time step continuity errors : sum local = 0.187671, global = 0.0229965, cumulative = 0.0524901
smoothSolver:  Solving for omega, Initial residual = 0.00363504, Final residual = 0.000206201, No Iterations 4
smoothSolver:  Solving for k, Initial residual = 0.0100712, Final residual = 0.00060298, No Iterations 4
ExecutionTime = 0.383532 s  ClockTime = 1 s

Time = 42s

smoothSolver:  Solving for Ux, Initial residual = 0.0193665, Final residual = 0.00127763, No Iterations 4
smoothSolver:  Solving for Uy, Initial residual = 0.0283029, Final residual = 0.00193566, No Iterations 4
GAMG:  Solving for p, Initial residual = 0.310493, Final residual = 0.0213263, No Iterations 3
time step continuity errors : sum local = 0.16749, global = 0.00388481, cumulative = 0.056375
smoothSolver:  Solving for omega, Initial residual = 0.00354959, Final residual = 0.000197153, No Iterations 4
smoothSolver:  Solving for k, Initial residual = 0.00959411, Final residual = 0.000566374, No Iterations 4
ExecutionTime = 0.391783 s  ClockTime = 1 s

Time = 43s

smoothSolver:  Solving for Ux, Initial residual = 0.0188204, Final residual = 0.00123533, No Iterations 4
smoothSolver:  Solving for Uy, Initial residual = 0.0263116, Final residual = 0.00175307, No Iterations 4
GAMG:  Solving for p, Initial residual = 0.297484, Final residual = 0.0202615, No Iterations 3
time step continuity errors : sum local = 0.15437, global = -0.0144271, cumulative = 0.0419479
smoothSolver:  Solving for omega, Initial residual = 0.00351615, Final residual = 0.000190509, No Iterations 4
smoothSolver:  Solving for k, Initial residual = 0.00914052, Final residual = 0.000533836, No Iterations 4
ExecutionTime = 0.400854 s  ClockTime = 1 s

Time = 44s

smoothSolver:  Solving for Ux, Initial residual = 0.0178104, Final residual = 0.00116409, No Iterations 4
smoothSolver:  Solving for Uy, Initial residual = 0.024193, Final residual = 0.00160031, No Iterations 4
GAMG:  Solving for p, Initial residual = 0.310445, Final residual = 0.0220308, No Iterations 3
time step continuity errors : sum local = 0.152935, global = -0.0268379, cumulative = 0.01511
smoothSolver:  Solving for omega, Initial residual = 0.00344819, Final residual = 0.000183004, No Iterations 4
smoothSolver:  Solving for k, Initial residual = 0.00869561, Final residual = 0.000504209, No Iterations 4
ExecutionTime = 0.409647 s  ClockTime = 1 s

Time = 45s

smoothSolver:  Solving for Ux, Initial residual = 0.0169674, Final residual = 0.0010961, No Iterations 4
smoothSolver:  Solving for Uy, Initial residual = 0.0231136, Final residual = 0.00153775, No Iterations 4
GAMG:  Solving for p, Initial residual = 0.333043, Final residual = 0.0246327, No Iterations 3
time step continuity errors : sum local = 0.150322, global = -0.0289418, cumulative = -0.0138318
smoothSolver:  Solving for omega, Initial residual = 0.00340714, Final residual = 0.000177944, No Iterations 4
smoothSolver:  Solving for k, Initial residual = 0.00832459, Final residual = 0.0004819, No Iterations 4
ExecutionTime = 0.418275 s  ClockTime = 1 s

Time = 46s

smoothSolver:  Solving for Ux, Initial residual = 0.0166793, Final residual = 0.00106386, No Iterations 4
smoothSolver:  Solving for Uy, Initial residual = 0.0229781, Final residual = 0.00154383, No Iterations 4
GAMG:  Solving for p, Initial residual = 0.351482, Final residual = 0.0263602, No Iterations 3
time step continuity errors : sum local = 0.141215, global = -0.0200843, cumulative = -0.0339161
smoothSolver:  Solving for omega, Initial residual = 0.00338994, Final residual = 0.000175593, No Iterations 4
smoothSolver:  Solving for k, Initial residual = 0.00798985, Final residual = 0.000463452, No Iterations 4
ExecutionTime = 0.426816 s  ClockTime = 1 s

Time = 47s

smoothSolver:  Solving for Ux, Initial residual = 0.0166226, Final residual = 0.00107185, No Iterations 4
smoothSolver:  Solving for Uy, Initial residual = 0.023187, Final residual = 0.0015727, No Iterations 4
GAMG:  Solving for p, Initial residual = 0.354196, Final residual = 0.0256107, No Iterations 3
time step continuity errors : sum local = 0.125693, global = -0.00515453, cumulative = -0.0390706
smoothSolver:  Solving for omega, Initial residual = 0.00334881, Final residual = 0.000177708, No Iterations 4
smoothSolver:  Solving for k, Initial residual = 0.00769746, Final residual = 0.000447518, No Iterations 4
ExecutionTime = 0.435538 s  ClockTime = 1 s

Time = 48s

smoothSolver:  Solving for Ux, Initial residual = 0.0163813, Final residual = 0.00108152, No Iterations 4
smoothSolver:  Solving for Uy, Initial residual = 0.0231416, Final residual = 0.00157636, No Iterations 4
GAMG:  Solving for p, Initial residual = 0.345721, Final residual = 0.0245072, No Iterations 3
time step continuity errors : sum local = 0.117422, global = 0.0101326, cumulative = -0.028938
smoothSolver:  Solving for omega, Initial residual = 0.00333481, Final residual = 0.000174991, No Iterations 4
smoothSolver:  Solving for k, Initial residual = 0.00741895, Final residual = 0.000432345, No Iterations 4
ExecutionTime = 0.444307 s  ClockTime = 1 s

Time = 49s

smoothSolver:  Solving for Ux, Initial residual = 0.0158985, Final residual = 0.00107811, No Iterations 4
smoothSolver:  Solving for Uy, Initial residual = 0.0226926, Final residual = 0.00154535, No Iterations 4
GAMG:  Solving for p, Initial residual = 0.319436, Final residual = 0.0235819, No Iterations 3
time step continuity errors : sum local = 0.114883, global = 0.0187611, cumulative = -0.0101769
smoothSolver:  Solving for omega, Initial residual = 0.00332128, Final residual = 0.000169741, No Iterations 4
smoothSolver:  Solving for k, Initial residual = 0.00718184, Final residual = 0.00041679, No Iterations 4
ExecutionTime = 0.453431 s  ClockTime = 1 s

Time = 50s

smoothSolver:  Solving for Ux, Initial residual = 0.0152983, Final residual = 0.00104471, No Iterations 4
smoothSolver:  Solving for Uy, Initial residual = 0.0220096, Final residual = 0.00149078, No Iterations 4
GAMG:  Solving for p, Initial residual = 0.286462, Final residual = 0.021476, No Iterations 3
time step continuity errors : sum local = 0.109026, global = 0.0183197, cumulative = 0.00814285
smoothSolver:  Solving for omega, Initial residual = 0.00327985, Final residual = 0.000167089, No Iterations 4
smoothSolver:  Solving for k, Initial residual = 0.00695202, Final residual = 0.000403476, No Iterations 4
ExecutionTime = 0.462211 s  ClockTime = 1 s

forces forces write:
    sum of forces:
        pressure : (5.64677 244.565 1.34872e-17)
        viscous  : (0.642733 -0.134222 -7.64553e-20)
        porous   : (0 0 0)
    sum of moments:
        pressure : (-2.59729e-16 5.75595e-17 -38.139)
        viscous  : (7.48985e-19 1.84237e-18 0.0328118)
        porous   : (0 0 0)

Time = 51s

smoothSolver:  Solving for Ux, Initial residual = 0.0148998, Final residual = 0.00100495, No Iterations 4
smoothSolver:  Solving for Uy, Initial residual = 0.0216213, Final residual = 0.00145827, No Iterations 4
GAMG:  Solving for p, Initial residual = 0.259428, Final residual = 0.0188986, No Iterations 3
time step continuity errors : sum local = 0.0989334, global = 0.0121194, cumulative = 0.0202622
smoothSolver:  Solving for omega, Initial residual = 0.00321741, Final residual = 0.000161777, No Iterations 4
smoothSolver:  Solving for k, Initial residual = 0.00674078, Final residual = 0.000391811, No Iterations 4
ExecutionTime = 0.47149 s  ClockTime = 1 s

Time = 52s

smoothSolver:  Solving for Ux, Initial residual = 0.0147733, Final residual = 0.000983972, No Iterations 4
smoothSolver:  Solving for Uy, Initial residual = 0.0220062, Final residual = 0.0014833, No Iterations 4
GAMG:  Solving for p, Initial residual = 0.249626, Final residual = 0.0184085, No Iterations 3
time step continuity errors : sum local = 0.095915, global = 0.00167795, cumulative = 0.0219402
smoothSolver:  Solving for omega, Initial residual = 0.00318281, Final residual = 0.000151913, No Iterations 4
smoothSolver:  Solving for k, Initial residual = 0.00656573, Final residual = 0.000381257, No Iterations 4
ExecutionTime = 0.480673 s  ClockTime = 1 s

Time = 53s

smoothSolver:  Solving for Ux, Initial residual = 0.0146688, Final residual = 0.000968457, No Iterations 4
smoothSolver:  Solving for Uy, Initial residual = 0.0225424, Final residual = 0.00152309, No Iterations 4
GAMG:  Solving for p, Initial residual = 0.244665, Final residual = 0.0190417, No Iterations 3
time step continuity errors : sum local = 0.0966697, global = -0.00832939, cumulative = 0.0136108
smoothSolver:  Solving for omega, Initial residual = 0.0031189, Final residual = 0.000308848, No Iterations 3
smoothSolver:  Solving for k, Initial residual = 0.00644916, Final residual = 0.000369962, No Iterations 4
ExecutionTime = 0.48983 s  ClockTime = 1 s

Time = 54s

smoothSolver:  Solving for Ux, Initial residual = 0.014404, Final residual = 0.000953821, No Iterations 4
smoothSolver:  Solving for Uy, Initial residual = 0.022863, Final residual = 0.00156071, No Iterations 4
GAMG:  Solving for p, Initial residual = 0.24013, Final residual = 0.0183524, No Iterations 3
time step continuity errors : sum local = 0.0897336, global = -0.0132711, cumulative = 0.000339669
smoothSolver:  Solving for omega, Initial residual = 0.0031325, Final residual = 0.000309736, No Iterations 3
smoothSolver:  Solving for k, Initial residual = 0.00636251, Final residual = 0.000360135, No Iterations 4
ExecutionTime = 0.498924 s  ClockTime = 1 s

Time = 55s

smoothSolver:  Solving for Ux, Initial residual = 0.0141508, Final residual = 0.000945191, No Iterations 4
smoothSolver:  Solving for Uy, Initial residual = 0.0229943, Final residual = 0.00157942, No Iterations 4
GAMG:  Solving for p, Initial residual = 0.234415, Final residual = 0.0171226, No Iterations 3
time step continuity errors : sum local = 0.0800667, global = -0.0128545, cumulative = -0.0125148
smoothSolver:  Solving for omega, Initial residual = 0.00311743, Final residual = 0.000310532, No Iterations 3
smoothSolver:  Solving for k, Initial residual = 0.00621281, Final residual = 0.000353098, No Iterations 4
ExecutionTime = 0.508696 s  ClockTime = 1 s

Time = 56s

smoothSolver:  Solving for Ux, Initial residual = 0.0140064, Final residual = 0.000941781, No Iterations 4
smoothSolver:  Solving for Uy, Initial residual = 0.0230332, Final residual = 0.00158018, No Iterations 4
GAMG:  Solving for p, Initial residual = 0.228894, Final residual = 0.0167359, No Iterations 3
time step continuity errors : sum local = 0.0752276, global = -0.00886097, cumulative = -0.0213758
smoothSolver:  Solving for omega, Initial residual = 0.00312375, Final residual = 0.000146595, No Iterations 4
smoothSolver:  Solving for k, Initial residual = 0.0061205, Final residual = 0.000351006, No Iterations 4
ExecutionTime = 0.517143 s  ClockTime = 1 s

Time = 57s

smoothSolver:  Solving for Ux, Initial residual = 0.013858, Final residual = 0.000930479, No Iterations 4
smoothSolver:  Solving for Uy, Initial residual = 0.0229942, Final residual = 0.00155215, No Iterations 4
GAMG:  Solving for p, Initial residual = 0.225282, Final residual = 0.0183542, No Iterations 3
time step continuity errors : sum local = 0.0803314, global = -0.00341665, cumulative = -0.0247924
smoothSolver:  Solving for omega, Initial residual = 0.00304364, Final residual = 0.000146288, No Iterations 4
smoothSolver:  Solving for k, Initial residual = 0.00605399, Final residual = 0.000349112, No Iterations 4
ExecutionTime = 0.525346 s  ClockTime = 1 s

Time = 58s

smoothSolver:  Solving for Ux, Initial residual = 0.0137493, Final residual = 0.000929573, No Iterations 4
smoothSolver:  Solving for Uy, Initial residual = 0.0229974, Final residual = 0.00152623, No Iterations 4
GAMG:  Solving for p, Initial residual = 0.223269, Final residual = 0.0190097, No Iterations 3
time step continuity errors : sum local = 0.0814639, global = 0.000924108, cumulative = -0.0238683
smoothSolver:  Solving for omega, Initial residual = 0.00300283, Final residual = 0.0001456, No Iterations 4
smoothSolver:  Solving for k, Initial residual = 0.00599066, Final residual = 0.000349109, No Iterations 4
ExecutionTime = 0.533977 s  ClockTime = 1 s

Time = 59s

smoothSolver:  Solving for Ux, Initial residual = 0.0137084, Final residual = 0.000934129, No Iterations 4
smoothSolver:  Solving for Uy, Initial residual = 0.0230485, Final residual = 0.00153306, No Iterations 4
GAMG:  Solving for p, Initial residual = 0.219761, Final residual = 0.0185032, No Iterations 3
time step continuity errors : sum local = 0.0771876, global = 0.00298061, cumulative = -0.0208877
smoothSolver:  Solving for omega, Initial residual = 0.00296049, Final residual = 0.000147026, No Iterations 4
smoothSolver:  Solving for k, Initial residual = 0.00601021, Final residual = 0.000349613, No Iterations 4
ExecutionTime = 0.54281 s  ClockTime = 1 s

Time = 60s

smoothSolver:  Solving for Ux, Initial residual = 0.0137036, Final residual = 0.000939443, No Iterations 4
smoothSolver:  Solving for Uy, Initial residual = 0.0235167, Final residual = 0.00158137, No Iterations 4
GAMG:  Solving for p, Initial residual = 0.214318, Final residual = 0.0176995, No Iterations 3
time step continuity errors : sum local = 0.0716236, global = 0.00326933, cumulative = -0.0176184
smoothSolver:  Solving for omega, Initial residual = 0.00292764, Final residual = 0.000149171, No Iterations 4
smoothSolver:  Solving for k, Initial residual = 0.0060821, Final residual = 0.000351303, No Iterations 4
ExecutionTime = 0.55202 s  ClockTime = 1 s

forces forces write:
    sum of forces:
        pressure : (10.8815 251.104 7.1989e-18)
        viscous  : (0.790187 -0.0617381 6.80458e-20)
        porous   : (0 0 0)
    sum of moments:
        pressure : (2.18375e-16 3.91229e-17 -38.3441)
        viscous  : (2.22586e-20 3.70675e-18 0.00022705)
        porous   : (0 0 0)

Time = 61s

smoothSolver:  Solving for Ux, Initial residual = 0.0136835, Final residual = 0.000939521, No Iterations 4
smoothSolver:  Solving for Uy, Initial residual = 0.0241417, Final residual = 0.00163573, No Iterations 4
GAMG:  Solving for p, Initial residual = 0.207794, Final residual = 0.0170457, No Iterations 3
time step continuity errors : sum local = 0.0673671, global = 0.00298885, cumulative = -0.0146295
smoothSolver:  Solving for omega, Initial residual = 0.00289953, Final residual = 0.000148036, No Iterations 4
smoothSolver:  Solving for k, Initial residual = 0.00612974, Final residual = 0.000354216, No Iterations 4
ExecutionTime = 0.560867 s  ClockTime = 1 s

Time = 62s

smoothSolver:  Solving for Ux, Initial residual = 0.0136403, Final residual = 0.000934327, No Iterations 4
smoothSolver:  Solving for Uy, Initial residual = 0.0242387, Final residual = 0.00166973, No Iterations 4
GAMG:  Solving for p, Initial residual = 0.198955, Final residual = 0.0161591, No Iterations 3
time step continuity errors : sum local = 0.0631362, global = 0.00329629, cumulative = -0.0113332
smoothSolver:  Solving for omega, Initial residual = 0.00288718, Final residual = 0.000147791, No Iterations 4
smoothSolver:  Solving for k, Initial residual = 0.0061657, Final residual = 0.000361516, No Iterations 4
ExecutionTime = 0.569938 s  ClockTime = 1 s

Time = 63s

smoothSolver:  Solving for Ux, Initial residual = 0.01361, Final residual = 0.000931979, No Iterations 4
smoothSolver:  Solving for Uy, Initial residual = 0.0238133, Final residual = 0.00165534, No Iterations 4
GAMG:  Solving for p, Initial residual = 0.186154, Final residual = 0.015083, No Iterations 3
time step continuity errors : sum local = 0.0597212, global = 0.00437815, cumulative = -0.00695507
smoothSolver:  Solving for omega, Initial residual = 0.002853, Final residual = 0.000146898, No Iterations 4
smoothSolver:  Solving for k, Initial residual = 0.00621003, Final residual = 0.000370923, No Iterations 4
ExecutionTime = 0.579207 s  ClockTime = 1 s

Time = 64s

smoothSolver:  Solving for Ux, Initial residual = 0.0135393, Final residual = 0.000928488, No Iterations 4
smoothSolver:  Solving for Uy, Initial residual = 0.0231564, Final residual = 0.00161343, No Iterations 4
GAMG:  Solving for p, Initial residual = 0.173667, Final residual = 0.0143595, No Iterations 3
time step continuity errors : sum local = 0.0589099, global = 0.00560544, cumulative = -0.00134963
smoothSolver:  Solving for omega, Initial residual = 0.00281102, Final residual = 0.000145697, No Iterations 4
smoothSolver:  Solving for k, Initial residual = 0.00627054, Final residual = 0.000380822, No Iterations 4
ExecutionTime = 0.587631 s  ClockTime = 1 s

Time = 65s

smoothSolver:  Solving for Ux, Initial residual = 0.0134338, Final residual = 0.000918987, No Iterations 4
smoothSolver:  Solving for Uy, Initial residual = 0.0228517, Final residual = 0.00159216, No Iterations 4
GAMG:  Solving for p, Initial residual = 0.162003, Final residual = 0.0139519, No Iterations 3
time step continuity errors : sum local = 0.0594234, global = 0.00600475, cumulative = 0.00465512
smoothSolver:  Solving for omega, Initial residual = 0.00280017, Final residual = 0.000144352, No Iterations 4
smoothSolver:  Solving for k, Initial residual = 0.00633495, Final residual = 0.000388335, No Iterations 4
ExecutionTime = 0.596506 s  ClockTime = 1 s

Time = 66s

smoothSolver:  Solving for Ux, Initial residual = 0.0133244, Final residual = 0.000908167, No Iterations 4
smoothSolver:  Solving for Uy, Initial residual = 0.0229818, Final residual = 0.00159644, No Iterations 4
GAMG:  Solving for p, Initial residual = 0.152676, Final residual = 0.0133331, No Iterations 3
time step continuity errors : sum local = 0.0581007, global = 0.00488445, cumulative = 0.00953957
smoothSolver:  Solving for omega, Initial residual = 0.00277545, Final residual = 0.000143427, No Iterations 4
smoothSolver:  Solving for k, Initial residual = 0.00639146, Final residual = 0.000393313, No Iterations 4
ExecutionTime = 0.605821 s  ClockTime = 1 s

Time = 67s

smoothSolver:  Solving for Ux, Initial residual = 0.0132003, Final residual = 0.000894413, No Iterations 4
smoothSolver:  Solving for Uy, Initial residual = 0.0230648, Final residual = 0.00158874, No Iterations 4
GAMG:  Solving for p, Initial residual = 0.14802, Final residual = 0.0132522, No Iterations 3
time step continuity errors : sum local = 0.0578152, global = 0.00228815, cumulative = 0.0118277
smoothSolver:  Solving for omega, Initial residual = 0.00276484, Final residual = 0.000142452, No Iterations 4
smoothSolver:  Solving for k, Initial residual = 0.00643375, Final residual = 0.000394118, No Iterations 4
ExecutionTime = 0.615555 s  ClockTime = 1 s

Time = 68s

smoothSolver:  Solving for Ux, Initial residual = 0.0130884, Final residual = 0.000883169, No Iterations 4
smoothSolver:  Solving for Uy, Initial residual = 0.0229148, Final residual = 0.00155355, No Iterations 4
GAMG:  Solving for p, Initial residual = 0.147109, Final residual = 0.0139016, No Iterations 3
time step continuity errors : sum local = 0.0594543, global = -0.000807468, cumulative = 0.0110203
smoothSolver:  Solving for omega, Initial residual = 0.00274116, Final residual = 0.00013873, No Iterations 4
smoothSolver:  Solving for k, Initial residual = 0.00646614, Final residual = 0.000388771, No Iterations 4
ExecutionTime = 0.624773 s  ClockTime = 1 s

Time = 69s

smoothSolver:  Solving for Ux, Initial residual = 0.0129942, Final residual = 0.000874246, No Iterations 4
smoothSolver:  Solving for Uy, Initial residual = 0.0226568, Final residual = 0.00151867, No Iterations 4
GAMG:  Solving for p, Initial residual = 0.148859, Final residual = 0.0147979, No Iterations 3
time step continuity errors : sum local = 0.0612694, global = -0.00321642, cumulative = 0.00780383
smoothSolver:  Solving for omega, Initial residual = 0.00270092, Final residual = 0.000130329, No Iterations 4
smoothSolver:  Solving for k, Initial residual = 0.00649656, Final residual = 0.000380395, No Iterations 4
ExecutionTime = 0.634136 s  ClockTime = 1 s

Time = 70s

smoothSolver:  Solving for Ux, Initial residual = 0.0128482, Final residual = 0.000867336, No Iterations 4
smoothSolver:  Solving for Uy, Initial residual = 0.0223621, Final residual = 0.00148812, No Iterations 4
GAMG:  Solving for p, Initial residual = 0.149348, Final residual = 0.0148407, No Iterations 3
time step continuity errors : sum local = 0.0593389, global = -0.00395927, cumulative = 0.00384456
smoothSolver:  Solving for omega, Initial residual = 0.00265542, Final residual = 0.000123358, No Iterations 4
smoothSolver:  Solving for k, Initial residual = 0.00649024, Final residual = 0.000374173, No Iterations 4
ExecutionTime = 0.644016 s  ClockTime = 1 s

forces forces write:
    sum of forces:
        pressure : (17.5132 262.438 7.88894e-18)
        viscous  : (0.871691 -0.0198669 1.01859e-19)
        porous   : (0 0 0)
    sum of moments:
        pressure : (-2.81094e-17 2.38857e-17 -31.5592)
        viscous  : (4.8501e-20 2.92836e-18 -0.0178321)
        porous   : (0 0 0)

Time = 71s

smoothSolver:  Solving for Ux, Initial residual = 0.0126267, Final residual = 0.000855946, No Iterations 4
smoothSolver:  Solving for Uy, Initial residual = 0.0220543, Final residual = 0.00147295, No Iterations 4
GAMG:  Solving for p, Initial residual = 0.146026, Final residual = 0.0139058, No Iterations 3
time step continuity errors : sum local = 0.053943, global = -0.00281232, cumulative = 0.00103225
smoothSolver:  Solving for omega, Initial residual = 0.00259923, Final residual = 0.000121986, No Iterations 4
smoothSolver:  Solving for k, Initial residual = 0.00645263, Final residual = 0.000372314, No Iterations 4
ExecutionTime = 0.652436 s  ClockTime = 1 s

Time = 72s

smoothSolver:  Solving for Ux, Initial residual = 0.0123994, Final residual = 0.000845064, No Iterations 4
smoothSolver:  Solving for Uy, Initial residual = 0.0217732, Final residual = 0.00145834, No Iterations 4
GAMG:  Solving for p, Initial residual = 0.142456, Final residual = 0.0122217, No Iterations 3
time step continuity errors : sum local = 0.0468161, global = 1.53185e-06, cumulative = 0.00103378
smoothSolver:  Solving for omega, Initial residual = 0.00254007, Final residual = 0.000119672, No Iterations 4
smoothSolver:  Solving for k, Initial residual = 0.00642427, Final residual = 0.000373565, No Iterations 4
ExecutionTime = 0.660704 s  ClockTime = 1 s

Time = 73s

smoothSolver:  Solving for Ux, Initial residual = 0.0122075, Final residual = 0.000834865, No Iterations 4
smoothSolver:  Solving for Uy, Initial residual = 0.0214941, Final residual = 0.00144626, No Iterations 4
GAMG:  Solving for p, Initial residual = 0.137621, Final residual = 0.0110877, No Iterations 3
time step continuity errors : sum local = 0.042571, global = 0.0030587, cumulative = 0.00409248
smoothSolver:  Solving for omega, Initial residual = 0.00248645, Final residual = 0.000117595, No Iterations 4
smoothSolver:  Solving for k, Initial residual = 0.00641121, Final residual = 0.000374478, No Iterations 4
ExecutionTime = 0.669492 s  ClockTime = 1 s

Time = 74s

smoothSolver:  Solving for Ux, Initial residual = 0.011996, Final residual = 0.000821367, No Iterations 4
smoothSolver:  Solving for Uy, Initial residual = 0.0212979, Final residual = 0.00143076, No Iterations 4
GAMG:  Solving for p, Initial residual = 0.131331, Final residual = 0.0104875, No Iterations 3
time step continuity errors : sum local = 0.0410584, global = 0.0055272, cumulative = 0.00961968
smoothSolver:  Solving for omega, Initial residual = 0.00245012, Final residual = 0.000115708, No Iterations 4
smoothSolver:  Solving for k, Initial residual = 0.00640831, Final residual = 0.000374513, No Iterations 4
ExecutionTime = 0.67938 s  ClockTime = 1 s

Time = 75s

smoothSolver:  Solving for Ux, Initial residual = 0.0117579, Final residual = 0.000805439, No Iterations 4
smoothSolver:  Solving for Uy, Initial residual = 0.0211625, Final residual = 0.00142632, No Iterations 4
GAMG:  Solving for p, Initial residual = 0.123459, Final residual = 0.00992092, No Iterations 3
time step continuity errors : sum local = 0.0398758, global = 0.00664177, cumulative = 0.0162615
smoothSolver:  Solving for omega, Initial residual = 0.00240638, Final residual = 0.000111192, No Iterations 4
smoothSolver:  Solving for k, Initial residual = 0.00638374, Final residual = 0.000375259, No Iterations 4
ExecutionTime = 0.687983 s  ClockTime = 1 s

Time = 76s

smoothSolver:  Solving for Ux, Initial residual = 0.011524, Final residual = 0.000793899, No Iterations 4
smoothSolver:  Solving for Uy, Initial residual = 0.0211361, Final residual = 0.00143539, No Iterations 4
GAMG:  Solving for p, Initial residual = 0.115285, Final residual = 0.00922505, No Iterations 3
time step continuity errors : sum local = 0.0379801, global = 0.00621288, cumulative = 0.0224743
smoothSolver:  Solving for omega, Initial residual = 0.0023717, Final residual = 0.000110459, No Iterations 4
smoothSolver:  Solving for k, Initial residual = 0.00635273, Final residual = 0.000379327, No Iterations 4
ExecutionTime = 0.696788 s  ClockTime = 1 s

Time = 77s

smoothSolver:  Solving for Ux, Initial residual = 0.0113267, Final residual = 0.000783477, No Iterations 4
smoothSolver:  Solving for Uy, Initial residual = 0.0210774, Final residual = 0.00144318, No Iterations 4
GAMG:  Solving for p, Initial residual = 0.11077, Final residual = 0.00845448, No Iterations 3
time step continuity errors : sum local = 0.0353796, global = 0.00453636, cumulative = 0.0270107
smoothSolver:  Solving for omega, Initial residual = 0.00231475, Final residual = 0.000111945, No Iterations 4
smoothSolver:  Solving for k, Initial residual = 0.00631078, Final residual = 0.000384862, No Iterations 4
ExecutionTime = 0.705973 s  ClockTime = 1 s

Time = 78s

smoothSolver:  Solving for Ux, Initial residual = 0.011149, Final residual = 0.000776395, No Iterations 4
smoothSolver:  Solving for Uy, Initial residual = 0.0209524, Final residual = 0.0014404, No Iterations 4
GAMG:  Solving for p, Initial residual = 0.107221, Final residual = 0.00802573, No Iterations 3
time step continuity errors : sum local = 0.0338546, global = 0.00241593, cumulative = 0.0294266
smoothSolver:  Solving for omega, Initial residual = 0.00227661, Final residual = 0.000114033, No Iterations 4
smoothSolver:  Solving for k, Initial residual = 0.00629145, Final residual = 0.00038951, No Iterations 4
ExecutionTime = 0.715146 s  ClockTime = 1 s

Time = 79s

smoothSolver:  Solving for Ux, Initial residual = 0.0109461, Final residual = 0.000764917, No Iterations 4
smoothSolver:  Solving for Uy, Initial residual = 0.0208029, Final residual = 0.00142799, No Iterations 4
GAMG:  Solving for p, Initial residual = 0.105617, Final residual = 0.00808418, No Iterations 3
time step continuity errors : sum local = 0.0340997, global = 0.000200964, cumulative = 0.0296276
smoothSolver:  Solving for omega, Initial residual = 0.00224405, Final residual = 0.000112931, No Iterations 4
smoothSolver:  Solving for k, Initial residual = 0.00625335, Final residual = 0.000389471, No Iterations 4
ExecutionTime = 0.724389 s  ClockTime = 1 s

Time = 80s

smoothSolver:  Solving for Ux, Initial residual = 0.0107039, Final residual = 0.000750042, No Iterations 4
smoothSolver:  Solving for Uy, Initial residual = 0.020613, Final residual = 0.00140395, No Iterations 4
GAMG:  Solving for p, Initial residual = 0.102981, Final residual = 0.00821957, No Iterations 3
time step continuity errors : sum local = 0.0344876, global = -0.00150679, cumulative = 0.0281208
smoothSolver:  Solving for omega, Initial residual = 0.00220854, Final residual = 0.000109514, No Iterations 4
smoothSolver:  Solving for k, Initial residual = 0.00621633, Final residual = 0.00038626, No Iterations 4
ExecutionTime = 0.734108 s  ClockTime = 1 s

forces forces write:
    sum of forces:
        pressure : (21.9256 279.776 8.20357e-18)
        viscous  : (0.95775 0.0161864 -2.50372e-21)
        porous   : (0 0 0)
    sum of moments:
        pressure : (-6.37673e-16 6.71421e-17 -26.9951)
        viscous  : (-2.68792e-19 1.22253e-18 -0.0340376)
        porous   : (0 0 0)

Time = 81s

smoothSolver:  Solving for Ux, Initial residual = 0.0104671, Final residual = 0.000734912, No Iterations 4
smoothSolver:  Solving for Uy, Initial residual = 0.0204148, Final residual = 0.00139164, No Iterations 4
GAMG:  Solving for p, Initial residual = 0.101455, Final residual = 0.00853469, No Iterations 3
time step continuity errors : sum local = 0.0354974, global = -0.00251954, cumulative = 0.0256013
smoothSolver:  Solving for omega, Initial residual = 0.00216799, Final residual = 0.000108174, No Iterations 4
smoothSolver:  Solving for k, Initial residual = 0.00616529, Final residual = 0.000383407, No Iterations 4
ExecutionTime = 0.742998 s  ClockTime = 1 s

Time = 82s

smoothSolver:  Solving for Ux, Initial residual = 0.0102676, Final residual = 0.000721049, No Iterations 4
smoothSolver:  Solving for Uy, Initial residual = 0.0201325, Final residual = 0.00138847, No Iterations 4
GAMG:  Solving for p, Initial residual = 0.100847, Final residual = 0.00894451, No Iterations 3
time step continuity errors : sum local = 0.036846, global = -0.00283949, cumulative = 0.0227618
smoothSolver:  Solving for omega, Initial residual = 0.00213857, Final residual = 0.00010833, No Iterations 4
smoothSolver:  Solving for k, Initial residual = 0.00611163, Final residual = 0.000382369, No Iterations 4
ExecutionTime = 0.75184 s  ClockTime = 1 s

Time = 83s

smoothSolver:  Solving for Ux, Initial residual = 0.0101341, Final residual = 0.000708694, No Iterations 4
smoothSolver:  Solving for Uy, Initial residual = 0.0198094, Final residual = 0.00138092, No Iterations 4
GAMG:  Solving for p, Initial residual = 0.0998869, Final residual = 0.00925869, No Iterations 3
time step continuity errors : sum local = 0.0376085, global = -0.00257986, cumulative = 0.0201819
smoothSolver:  Solving for omega, Initial residual = 0.00211573, Final residual = 0.000109695, No Iterations 4
smoothSolver:  Solving for k, Initial residual = 0.00606088, Final residual = 0.000383877, No Iterations 4
ExecutionTime = 0.760642 s  ClockTime = 1 s

Time = 84s

smoothSolver:  Solving for Ux, Initial residual = 0.0100006, Final residual = 0.000695894, No Iterations 4
smoothSolver:  Solving for Uy, Initial residual = 0.0195107, Final residual = 0.00137308, No Iterations 4
GAMG:  Solving for p, Initial residual = 0.0994061, Final residual = 0.00907456, No Iterations 3
time step continuity errors : sum local = 0.0363029, global = -0.00190708, cumulative = 0.0182748
smoothSolver:  Solving for omega, Initial residual = 0.00208709, Final residual = 0.0001089, No Iterations 4
smoothSolver:  Solving for k, Initial residual = 0.00600532, Final residual = 0.000383624, No Iterations 4
ExecutionTime = 0.769808 s  ClockTime = 1 s

Time = 85s

smoothSolver:  Solving for Ux, Initial residual = 0.00987766, Final residual = 0.000684783, No Iterations 4
smoothSolver:  Solving for Uy, Initial residual = 0.0191784, Final residual = 0.00134915, No Iterations 4
GAMG:  Solving for p, Initial residual = 0.0980123, Final residual = 0.00852229, No Iterations 3
time step continuity errors : sum local = 0.0334705, global = -0.00100872, cumulative = 0.0172661
smoothSolver:  Solving for omega, Initial residual = 0.00206151, Final residual = 0.000105846, No Iterations 4
smoothSolver:  Solving for k, Initial residual = 0.00594688, Final residual = 0.000379817, No Iterations 4
ExecutionTime = 0.778325 s  ClockTime = 1 s

Time = 86s

smoothSolver:  Solving for Ux, Initial residual = 0.00975568, Final residual = 0.00067461, No Iterations 4
smoothSolver:  Solving for Uy, Initial residual = 0.0190083, Final residual = 0.00132981, No Iterations 4
GAMG:  Solving for p, Initial residual = 0.0971352, Final residual = 0.00802074, No Iterations 3
time step continuity errors : sum local = 0.0309176, global = -9.56952e-05, cumulative = 0.0171704
smoothSolver:  Solving for omega, Initial residual = 0.00202616, Final residual = 0.000103678, No Iterations 4
smoothSolver:  Solving for k, Initial residual = 0.00588536, Final residual = 0.000373851, No Iterations 4
ExecutionTime = 0.786696 s  ClockTime = 1 s

Time = 87s

smoothSolver:  Solving for Ux, Initial residual = 0.0096093, Final residual = 0.000662848, No Iterations 4
smoothSolver:  Solving for Uy, Initial residual = 0.0188245, Final residual = 0.001302, No Iterations 4
GAMG:  Solving for p, Initial residual = 0.0972204, Final residual = 0.00783081, No Iterations 3
time step continuity errors : sum local = 0.0297907, global = 0.000623071, cumulative = 0.0177935
smoothSolver:  Solving for omega, Initial residual = 0.00199321, Final residual = 0.000102633, No Iterations 4
smoothSolver:  Solving for k, Initial residual = 0.00583032, Final residual = 0.000365633, No Iterations 4
ExecutionTime = 0.795144 s  ClockTime = 1 s

Time = 88s

smoothSolver:  Solving for Ux, Initial residual = 0.00944831, Final residual = 0.000648947, No Iterations 4
smoothSolver:  Solving for Uy, Initial residual = 0.0185104, Final residual = 0.00126233, No Iterations 4
GAMG:  Solving for p, Initial residual = 0.0976812, Final residual = 0.00774677, No Iterations 3
time step continuity errors : sum local = 0.0292797, global = 0.000996174, cumulative = 0.0187897
smoothSolver:  Solving for omega, Initial residual = 0.00195397, Final residual = 0.000100725, No Iterations 4
smoothSolver:  Solving for k, Initial residual = 0.00578717, Final residual = 0.000356735, No Iterations 4
ExecutionTime = 0.803236 s  ClockTime = 1 s

Time = 89s

smoothSolver:  Solving for Ux, Initial residual = 0.00927132, Final residual = 0.000635905, No Iterations 4
smoothSolver:  Solving for Uy, Initial residual = 0.018159, Final residual = 0.00122243, No Iterations 4
GAMG:  Solving for p, Initial residual = 0.0951663, Final residual = 0.0074368, No Iterations 3
time step continuity errors : sum local = 0.028088, global = 0.000941987, cumulative = 0.0197316
smoothSolver:  Solving for omega, Initial residual = 0.0019243, Final residual = 9.85807e-05, No Iterations 4
smoothSolver:  Solving for k, Initial residual = 0.00573284, Final residual = 0.000347638, No Iterations 4
ExecutionTime = 0.812182 s  ClockTime = 1 s

Time = 90s

smoothSolver:  Solving for Ux, Initial residual = 0.00909752, Final residual = 0.000626928, No Iterations 4
smoothSolver:  Solving for Uy, Initial residual = 0.0178231, Final residual = 0.00119202, No Iterations 4
GAMG:  Solving for p, Initial residual = 0.0923264, Final residual = 0.00727687, No Iterations 3
time step continuity errors : sum local = 0.0275301, global = 0.000487666, cumulative = 0.0202193
smoothSolver:  Solving for omega, Initial residual = 0.0018947, Final residual = 9.66e-05, No Iterations 4
smoothSolver:  Solving for k, Initial residual = 0.00568779, Final residual = 0.000341209, No Iterations 4
ExecutionTime = 0.821154 s  ClockTime = 1 s

forces forces write:
    sum of forces:
        pressure : (24.1767 280.407 1.15869e-17)
        viscous  : (1.04096 0.0372259 -8.28508e-20)
        porous   : (0 0 0)
    sum of moments:
        pressure : (-9.64878e-16 1.18149e-16 -19.4146)
        viscous  : (-6.24082e-19 2.83827e-19 -0.0451688)
        porous   : (0 0 0)

Time = 91s

smoothSolver:  Solving for Ux, Initial residual = 0.00895112, Final residual = 0.000620415, No Iterations 4
smoothSolver:  Solving for Uy, Initial residual = 0.0176644, Final residual = 0.00117678, No Iterations 4
GAMG:  Solving for p, Initial residual = 0.090276, Final residual = 0.00733308, No Iterations 3
time step continuity errors : sum local = 0.0278534, global = -0.000247473, cumulative = 0.0199718
smoothSolver:  Solving for omega, Initial residual = 0.00186101, Final residual = 9.73281e-05, No Iterations 4
smoothSolver:  Solving for k, Initial residual = 0.00563606, Final residual = 0.000338799, No Iterations 4
ExecutionTime = 0.830502 s  ClockTime = 1 s

Time = 92s

smoothSolver:  Solving for Ux, Initial residual = 0.0088009, Final residual = 0.000612609, No Iterations 4
smoothSolver:  Solving for Uy, Initial residual = 0.0175349, Final residual = 0.00117475, No Iterations 4
GAMG:  Solving for p, Initial residual = 0.0890003, Final residual = 0.00697191, No Iterations 3
time step continuity errors : sum local = 0.0265506, global = -0.00111211, cumulative = 0.0188597
smoothSolver:  Solving for omega, Initial residual = 0.00182721, Final residual = 9.67398e-05, No Iterations 4
smoothSolver:  Solving for k, Initial residual = 0.00559462, Final residual = 0.000339376, No Iterations 4
ExecutionTime = 0.840212 s  ClockTime = 1 s

Time = 93s

smoothSolver:  Solving for Ux, Initial residual = 0.00864562, Final residual = 0.000604294, No Iterations 4
smoothSolver:  Solving for Uy, Initial residual = 0.0174366, Final residual = 0.00118268, No Iterations 4
GAMG:  Solving for p, Initial residual = 0.0873669, Final residual = 0.00659719, No Iterations 3
time step continuity errors : sum local = 0.0249916, global = -0.00187478, cumulative = 0.016985
smoothSolver:  Solving for omega, Initial residual = 0.00179214, Final residual = 9.46833e-05, No Iterations 4
smoothSolver:  Solving for k, Initial residual = 0.00555894, Final residual = 0.000339838, No Iterations 4
ExecutionTime = 0.848583 s  ClockTime = 1 s

Time = 94s

smoothSolver:  Solving for Ux, Initial residual = 0.00849769, Final residual = 0.000594081, No Iterations 4
smoothSolver:  Solving for Uy, Initial residual = 0.0173524, Final residual = 0.00118944, No Iterations 4
GAMG:  Solving for p, Initial residual = 0.0856059, Final residual = 0.0064588, No Iterations 3
time step continuity errors : sum local = 0.0241749, global = -0.00242577, cumulative = 0.0145592
smoothSolver:  Solving for omega, Initial residual = 0.00176679, Final residual = 9.04377e-05, No Iterations 4
smoothSolver:  Solving for k, Initial residual = 0.00551595, Final residual = 0.000340411, No Iterations 4
ExecutionTime = 0.857408 s  ClockTime = 1 s

Time = 95s

smoothSolver:  Solving for Ux, Initial residual = 0.00836114, Final residual = 0.000583103, No Iterations 4
smoothSolver:  Solving for Uy, Initial residual = 0.0172513, Final residual = 0.00119468, No Iterations 4
GAMG:  Solving for p, Initial residual = 0.0850112, Final residual = 0.00640074, No Iterations 3
time step continuity errors : sum local = 0.0235269, global = -0.00268866, cumulative = 0.0118705
smoothSolver:  Solving for omega, Initial residual = 0.00174152, Final residual = 8.7312e-05, No Iterations 4
smoothSolver:  Solving for k, Initial residual = 0.00549703, Final residual = 0.000343154, No Iterations 4
ExecutionTime = 0.866536 s  ClockTime = 1 s

Time = 96s

smoothSolver:  Solving for Ux, Initial residual = 0.00823024, Final residual = 0.0005699, No Iterations 4
smoothSolver:  Solving for Uy, Initial residual = 0.0171527, Final residual = 0.00119526, No Iterations 4
GAMG:  Solving for p, Initial residual = 0.0854147, Final residual = 0.00644674, No Iterations 3
time step continuity errors : sum local = 0.0232395, global = -0.00268621, cumulative = 0.00918431
smoothSolver:  Solving for omega, Initial residual = 0.00170995, Final residual = 8.78702e-05, No Iterations 4
smoothSolver:  Solving for k, Initial residual = 0.00548788, Final residual = 0.000347109, No Iterations 4
ExecutionTime = 0.875043 s  ClockTime = 1 s

Time = 97s

smoothSolver:  Solving for Ux, Initial residual = 0.00809884, Final residual = 0.000557038, No Iterations 4
smoothSolver:  Solving for Uy, Initial residual = 0.0169928, Final residual = 0.00118609, No Iterations 4
GAMG:  Solving for p, Initial residual = 0.086628, Final residual = 0.00649238, No Iterations 3
time step continuity errors : sum local = 0.0230114, global = -0.0024571, cumulative = 0.0067272
smoothSolver:  Solving for omega, Initial residual = 0.00167935, Final residual = 8.74889e-05, No Iterations 4
smoothSolver:  Solving for k, Initial residual = 0.00547814, Final residual = 0.000350518, No Iterations 4
ExecutionTime = 0.884336 s  ClockTime = 1 s

Time = 98s

smoothSolver:  Solving for Ux, Initial residual = 0.00797696, Final residual = 0.00054689, No Iterations 4
smoothSolver:  Solving for Uy, Initial residual = 0.0168136, Final residual = 0.00117161, No Iterations 4
GAMG:  Solving for p, Initial residual = 0.0853036, Final residual = 0.00651822, No Iterations 3
time step continuity errors : sum local = 0.0227719, global = -0.00200203, cumulative = 0.00472517
smoothSolver:  Solving for omega, Initial residual = 0.00166302, Final residual = 8.58857e-05, No Iterations 4
smoothSolver:  Solving for k, Initial residual = 0.00546486, Final residual = 0.000351627, No Iterations 4
ExecutionTime = 0.894112 s  ClockTime = 1 s

Time = 99s

smoothSolver:  Solving for Ux, Initial residual = 0.00786997, Final residual = 0.000539745, No Iterations 4
smoothSolver:  Solving for Uy, Initial residual = 0.0166828, Final residual = 0.00116788, No Iterations 4
GAMG:  Solving for p, Initial residual = 0.0847587, Final residual = 0.00654703, No Iterations 3
time step continuity errors : sum local = 0.0226333, global = -0.00145845, cumulative = 0.00326672
smoothSolver:  Solving for omega, Initial residual = 0.00164433, Final residual = 8.50561e-05, No Iterations 4
smoothSolver:  Solving for k, Initial residual = 0.00545091, Final residual = 0.000351733, No Iterations 4
ExecutionTime = 0.902489 s  ClockTime = 1 s

Time = 100s

smoothSolver:  Solving for Ux, Initial residual = 0.00776191, Final residual = 0.000534549, No Iterations 4
smoothSolver:  Solving for Uy, Initial residual = 0.0165407, Final residual = 0.00116352, No Iterations 4
GAMG:  Solving for p, Initial residual = 0.0849133, Final residual = 0.00640965, No Iterations 3
time step continuity errors : sum local = 0.0220214, global = -0.00091169, cumulative = 0.00235503
smoothSolver:  Solving for omega, Initial residual = 0.00161968, Final residual = 8.49858e-05, No Iterations 4
smoothSolver:  Solving for k, Initial residual = 0.00544364, Final residual = 0.000351983, No Iterations 4
ExecutionTime = 0.912156 s  ClockTime = 1 s

forces forces write:
    sum of forces:
        pressure : (25.4729 286.125 1.38434e-17)
        viscous  : (1.09964 0.0522363 -6.05977e-20)
        porous   : (0 0 0)
    sum of moments:
        pressure : (-1.16761e-15 1.59858e-16 -12.8951)
        viscous  : (-8.34228e-19 1.68324e-19 -0.0516223)
        porous   : (0 0 0)

Time = 101s

smoothSolver:  Solving for Ux, Initial residual = 0.00765013, Final residual = 0.000529585, No Iterations 4
smoothSolver:  Solving for Uy, Initial residual = 0.0164308, Final residual = 0.00116411, No Iterations 4
GAMG:  Solving for p, Initial residual = 0.0847956, Final residual = 0.00620324, No Iterations 3
time step continuity errors : sum local = 0.0212153, global = -0.000438622, cumulative = 0.00191641
smoothSolver:  Solving for omega, Initial residual = 0.00159655, Final residual = 8.41972e-05, No Iterations 4
smoothSolver:  Solving for k, Initial residual = 0.00543614, Final residual = 0.000352499, No Iterations 4
ExecutionTime = 0.920972 s  ClockTime = 1 s

Time = 102s

smoothSolver:  Solving for Ux, Initial residual = 0.00754164, Final residual = 0.000524908, No Iterations 4
smoothSolver:  Solving for Uy, Initial residual = 0.0163077, Final residual = 0.00116728, No Iterations 4
GAMG:  Solving for p, Initial residual = 0.0834149, Final residual = 0.006271, No Iterations 3
time step continuity errors : sum local = 0.0213534, global = -0.000160243, cumulative = 0.00175617
smoothSolver:  Solving for omega, Initial residual = 0.00157485, Final residual = 8.24296e-05, No Iterations 4
smoothSolver:  Solving for k, Initial residual = 0.00543885, Final residual = 0.000351908, No Iterations 4
ExecutionTime = 0.930036 s  ClockTime = 1 s

Time = 103s

smoothSolver:  Solving for Ux, Initial residual = 0.00744715, Final residual = 0.000521991, No Iterations 4
smoothSolver:  Solving for Uy, Initial residual = 0.0162056, Final residual = 0.00116646, No Iterations 4
GAMG:  Solving for p, Initial residual = 0.0835312, Final residual = 0.00643154, No Iterations 3
time step continuity errors : sum local = 0.0218385, global = -0.000118735, cumulative = 0.00163743
smoothSolver:  Solving for omega, Initial residual = 0.00155165, Final residual = 8.15638e-05, No Iterations 4
smoothSolver:  Solving for k, Initial residual = 0.00544997, Final residual = 0.000350413, No Iterations 4
ExecutionTime = 0.939211 s  ClockTime = 1 s

Time = 104s

smoothSolver:  Solving for Ux, Initial residual = 0.00734807, Final residual = 0.000519566, No Iterations 4
smoothSolver:  Solving for Uy, Initial residual = 0.0161243, Final residual = 0.00115673, No Iterations 4
GAMG:  Solving for p, Initial residual = 0.0821898, Final residual = 0.00660191, No Iterations 3
time step continuity errors : sum local = 0.0223622, global = -0.000302021, cumulative = 0.00133541
smoothSolver:  Solving for omega, Initial residual = 0.00153128, Final residual = 8.16409e-05, No Iterations 4
smoothSolver:  Solving for k, Initial residual = 0.00546841, Final residual = 0.000348491, No Iterations 4
ExecutionTime = 0.948424 s  ClockTime = 1 s

Time = 105s

smoothSolver:  Solving for Ux, Initial residual = 0.00725829, Final residual = 0.000516206, No Iterations 4
smoothSolver:  Solving for Uy, Initial residual = 0.0160765, Final residual = 0.00114035, No Iterations 4
GAMG:  Solving for p, Initial residual = 0.0806347, Final residual = 0.00675603, No Iterations 3
time step continuity errors : sum local = 0.0227929, global = -0.000641225, cumulative = 0.000694186
smoothSolver:  Solving for omega, Initial residual = 0.00151453, Final residual = 8.23028e-05, No Iterations 4
smoothSolver:  Solving for k, Initial residual = 0.0054809, Final residual = 0.00034605, No Iterations 4
ExecutionTime = 0.956885 s  ClockTime = 1 s

Time = 106s

smoothSolver:  Solving for Ux, Initial residual = 0.00716538, Final residual = 0.000511617, No Iterations 4
smoothSolver:  Solving for Uy, Initial residual = 0.0160444, Final residual = 0.00112174, No Iterations 4
GAMG:  Solving for p, Initial residual = 0.0799155, Final residual = 0.00682537, No Iterations 3
time step continuity errors : sum local = 0.0228958, global = -0.000984307, cumulative = -0.000290122
smoothSolver:  Solving for omega, Initial residual = 0.00150137, Final residual = 8.17588e-05, No Iterations 4
smoothSolver:  Solving for k, Initial residual = 0.0054965, Final residual = 0.000344006, No Iterations 4
ExecutionTime = 0.964972 s  ClockTime = 1 s

Time = 107s

smoothSolver:  Solving for Ux, Initial residual = 0.00709262, Final residual = 0.000507767, No Iterations 4
smoothSolver:  Solving for Uy, Initial residual = 0.0159909, Final residual = 0.00110438, No Iterations 4
GAMG:  Solving for p, Initial residual = 0.0793187, Final residual = 0.00674946, No Iterations 3
time step continuity errors : sum local = 0.0224426, global = -0.0011851, cumulative = -0.00147522
smoothSolver:  Solving for omega, Initial residual = 0.00148973, Final residual = 8.12411e-05, No Iterations 4
smoothSolver:  Solving for k, Initial residual = 0.00550148, Final residual = 0.000342074, No Iterations 4
ExecutionTime = 0.973475 s  ClockTime = 1 s

Time = 108s

smoothSolver:  Solving for Ux, Initial residual = 0.00703142, Final residual = 0.000505209, No Iterations 4
smoothSolver:  Solving for Uy, Initial residual = 0.015976, Final residual = 0.00109108, No Iterations 4
GAMG:  Solving for p, Initial residual = 0.079219, Final residual = 0.00667602, No Iterations 3
time step continuity errors : sum local = 0.0218893, global = -0.00121046, cumulative = -0.00268568
smoothSolver:  Solving for omega, Initial residual = 0.00146892, Final residual = 8.14714e-05, No Iterations 4
smoothSolver:  Solving for k, Initial residual = 0.00550883, Final residual = 0.000341376, No Iterations 4
ExecutionTime = 0.981972 s  ClockTime = 1 s

Time = 109s

smoothSolver:  Solving for Ux, Initial residual = 0.0069923, Final residual = 0.000503129, No Iterations 4
smoothSolver:  Solving for Uy, Initial residual = 0.0160215, Final residual = 0.00108786, No Iterations 4
GAMG:  Solving for p, Initial residual = 0.0810635, Final residual = 0.00682015, No Iterations 3
time step continuity errors : sum local = 0.0220299, global = -0.00100745, cumulative = -0.00369313
smoothSolver:  Solving for omega, Initial residual = 0.00145701, Final residual = 8.01118e-05, No Iterations 4
smoothSolver:  Solving for k, Initial residual = 0.00551641, Final residual = 0.000341969, No Iterations 4
ExecutionTime = 0.990967 s  ClockTime = 1 s

Time = 110s

smoothSolver:  Solving for Ux, Initial residual = 0.00694877, Final residual = 0.000500418, No Iterations 4
smoothSolver:  Solving for Uy, Initial residual = 0.0161021, Final residual = 0.00109993, No Iterations 4
GAMG:  Solving for p, Initial residual = 0.0833357, Final residual = 0.00713499, No Iterations 3
time step continuity errors : sum local = 0.0227314, global = -0.000630709, cumulative = -0.00432384
smoothSolver:  Solving for omega, Initial residual = 0.00144429, Final residual = 7.85931e-05, No Iterations 4
smoothSolver:  Solving for k, Initial residual = 0.00551638, Final residual = 0.000344303, No Iterations 4
ExecutionTime = 1.00095 s  ClockTime = 1 s

forces forces write:
    sum of forces:
[...]
smoothSolver:  Solving for k, Initial residual = 9.88682e-09, Final residual = 9.88682e-09, No Iterations 0
ExecutionTime = 21.9735 s  ClockTime = 22 s

Time = 2974s

smoothSolver:  Solving for Ux, Initial residual = 9.28652e-09, Final residual = 9.28652e-09, No Iterations 0
smoothSolver:  Solving for Uy, Initial residual = 1.06033e-08, Final residual = 4.6387e-09, No Iterations 1
GAMG:  Solving for p, Initial residual = 2.09534e-07, Final residual = 2.03577e-08, No Iterations 1
time step continuity errors : sum local = 4.0384e-08, global = 3.04509e-10, cumulative = -0.0150214
smoothSolver:  Solving for omega, Initial residual = 9.98488e-09, Final residual = 9.98488e-09, No Iterations 0
smoothSolver:  Solving for k, Initial residual = 9.84844e-09, Final residual = 9.84844e-09, No Iterations 0
ExecutionTime = 21.9803 s  ClockTime = 22 s

Time = 2975s

smoothSolver:  Solving for Ux, Initial residual = 1.03373e-08, Final residual = 4.14654e-09, No Iterations 1
smoothSolver:  Solving for Uy, Initial residual = 9.0602e-09, Final residual = 9.0602e-09, No Iterations 0
GAMG:  Solving for p, Initial residual = 1.59376e-07, Final residual = 1.38133e-08, No Iterations 1
time step continuity errors : sum local = 2.74018e-08, global = 9.32811e-10, cumulative = -0.0150214
smoothSolver:  Solving for omega, Initial residual = 9.98501e-09, Final residual = 9.98501e-09, No Iterations 0
smoothSolver:  Solving for k, Initial residual = 9.8447e-09, Final residual = 9.8447e-09, No Iterations 0
ExecutionTime = 21.987 s  ClockTime = 22 s

Time = 2976s

smoothSolver:  Solving for Ux, Initial residual = 7.76561e-09, Final residual = 7.76561e-09, No Iterations 0
smoothSolver:  Solving for Uy, Initial residual = 9.94019e-09, Final residual = 9.94019e-09, No Iterations 0
GAMG:  Solving for p, Initial residual = 1.46318e-07, Final residual = 1.3391e-08, No Iterations 1
time step continuity errors : sum local = 2.6564e-08, global = 1.69777e-09, cumulative = -0.0150214
smoothSolver:  Solving for omega, Initial residual = 9.98515e-09, Final residual = 9.98515e-09, No Iterations 0
smoothSolver:  Solving for k, Initial residual = 9.86619e-09, Final residual = 9.86619e-09, No Iterations 0
ExecutionTime = 21.9938 s  ClockTime = 22 s

Time = 2977s

smoothSolver:  Solving for Ux, Initial residual = 7.95714e-09, Final residual = 7.95714e-09, No Iterations 0
smoothSolver:  Solving for Uy, Initial residual = 1.11846e-08, Final residual = 4.9086e-09, No Iterations 1
GAMG:  Solving for p, Initial residual = 1.96443e-07, Final residual = 1.81894e-08, No Iterations 1
time step continuity errors : sum local = 3.60827e-08, global = 2.16121e-09, cumulative = -0.0150214
smoothSolver:  Solving for omega, Initial residual = 9.98519e-09, Final residual = 9.98519e-09, No Iterations 0
smoothSolver:  Solving for k, Initial residual = 9.88346e-09, Final residual = 9.88346e-09, No Iterations 0
ExecutionTime = 22.0014 s  ClockTime = 22 s

Time = 2978s

smoothSolver:  Solving for Ux, Initial residual = 8.65954e-09, Final residual = 8.65954e-09, No Iterations 0
smoothSolver:  Solving for Uy, Initial residual = 9.67896e-09, Final residual = 9.67896e-09, No Iterations 0
GAMG:  Solving for p, Initial residual = 1.5485e-07, Final residual = 1.41387e-08, No Iterations 1
time step continuity errors : sum local = 2.80473e-08, global = 2.8138e-09, cumulative = -0.0150214
smoothSolver:  Solving for omega, Initial residual = 9.98523e-09, Final residual = 9.98523e-09, No Iterations 0
smoothSolver:  Solving for k, Initial residual = 9.91457e-09, Final residual = 9.91457e-09, No Iterations 0
ExecutionTime = 22.0078 s  ClockTime = 22 s

Time = 2979s

smoothSolver:  Solving for Ux, Initial residual = 9.59e-09, Final residual = 9.59e-09, No Iterations 0
smoothSolver:  Solving for Uy, Initial residual = 1.05482e-08, Final residual = 4.65862e-09, No Iterations 1
GAMG:  Solving for p, Initial residual = 2.22728e-07, Final residual = 2.16714e-08, No Iterations 1
time step continuity errors : sum local = 4.299e-08, global = 3.12934e-09, cumulative = -0.0150214
smoothSolver:  Solving for omega, Initial residual = 9.98522e-09, Final residual = 9.98522e-09, No Iterations 0
smoothSolver:  Solving for k, Initial residual = 9.90499e-09, Final residual = 9.90499e-09, No Iterations 0
ExecutionTime = 22.0148 s  ClockTime = 22 s

Time = 2980s

smoothSolver:  Solving for Ux, Initial residual = 1.08584e-08, Final residual = 4.63489e-09, No Iterations 1
smoothSolver:  Solving for Uy, Initial residual = 9.15743e-09, Final residual = 9.15743e-09, No Iterations 0
GAMG:  Solving for p, Initial residual = 1.71562e-07, Final residual = 1.43265e-08, No Iterations 1
time step continuity errors : sum local = 2.84198e-08, global = 3.1734e-09, cumulative = -0.0150214
smoothSolver:  Solving for omega, Initial residual = 9.98514e-09, Final residual = 9.98514e-09, No Iterations 0
smoothSolver:  Solving for k, Initial residual = 9.91682e-09, Final residual = 9.91682e-09, No Iterations 0
ExecutionTime = 22.0224 s  ClockTime = 22 s

forces forces write:
    sum of forces:
        pressure : (5.60549 245.03 2.78673e-18)
        viscous  : (1.57607 -0.0102357 8.50501e-20)
        porous   : (0 0 0)
    sum of moments:
        pressure : (-5.42665e-16 -2.32511e-17 -32.9981)
        viscous  : (-2.30557e-19 3.19505e-18 -0.0967299)
        porous   : (0 0 0)

Time = 2981s

smoothSolver:  Solving for Ux, Initial residual = 8.39857e-09, Final residual = 8.39857e-09, No Iterations 0
smoothSolver:  Solving for Uy, Initial residual = 1.03422e-08, Final residual = 4.76852e-09, No Iterations 1
GAMG:  Solving for p, Initial residual = 2.10291e-07, Final residual = 1.82062e-08, No Iterations 1
time step continuity errors : sum local = 3.6116e-08, global = 3.50912e-09, cumulative = -0.0150214
smoothSolver:  Solving for omega, Initial residual = 9.98512e-09, Final residual = 9.98512e-09, No Iterations 0
smoothSolver:  Solving for k, Initial residual = 9.86557e-09, Final residual = 9.86557e-09, No Iterations 0
ExecutionTime = 22.029 s  ClockTime = 22 s

Time = 2982s

smoothSolver:  Solving for Ux, Initial residual = 8.90118e-09, Final residual = 8.90118e-09, No Iterations 0
smoothSolver:  Solving for Uy, Initial residual = 9.36969e-09, Final residual = 9.36969e-09, No Iterations 0
GAMG:  Solving for p, Initial residual = 1.86976e-07, Final residual = 1.68842e-08, No Iterations 1
time step continuity errors : sum local = 3.34936e-08, global = 3.00319e-09, cumulative = -0.0150214
smoothSolver:  Solving for omega, Initial residual = 9.98512e-09, Final residual = 9.98512e-09, No Iterations 0
smoothSolver:  Solving for k, Initial residual = 9.86305e-09, Final residual = 9.86305e-09, No Iterations 0
ExecutionTime = 22.0354 s  ClockTime = 22 s

Time = 2983s

smoothSolver:  Solving for Ux, Initial residual = 9.56447e-09, Final residual = 9.56447e-09, No Iterations 0
smoothSolver:  Solving for Uy, Initial residual = 1.05183e-08, Final residual = 4.66413e-09, No Iterations 1
GAMG:  Solving for p, Initial residual = 2.49019e-07, Final residual = 2.46776e-08, No Iterations 1
time step continuity errors : sum local = 4.89534e-08, global = 2.30329e-09, cumulative = -0.0150214
smoothSolver:  Solving for omega, Initial residual = 9.98502e-09, Final residual = 9.98502e-09, No Iterations 0
smoothSolver:  Solving for k, Initial residual = 9.85139e-09, Final residual = 9.85139e-09, No Iterations 0
ExecutionTime = 22.0419 s  ClockTime = 22 s

Time = 2984s

smoothSolver:  Solving for Ux, Initial residual = 1.0619e-08, Final residual = 4.75136e-09, No Iterations 1
smoothSolver:  Solving for Uy, Initial residual = 9.22352e-09, Final residual = 9.22352e-09, No Iterations 0
GAMG:  Solving for p, Initial residual = 1.5813e-07, Final residual = 1.70579e-08, No Iterations 1
time step continuity errors : sum local = 3.38381e-08, global = 1.4495e-09, cumulative = -0.0150214
smoothSolver:  Solving for omega, Initial residual = 9.98488e-09, Final residual = 9.98488e-09, No Iterations 0
smoothSolver:  Solving for k, Initial residual = 9.87898e-09, Final residual = 9.87898e-09, No Iterations 0
ExecutionTime = 22.0483 s  ClockTime = 22 s

Time = 2985s

smoothSolver:  Solving for Ux, Initial residual = 8.36565e-09, Final residual = 8.36565e-09, No Iterations 0
smoothSolver:  Solving for Uy, Initial residual = 1.03643e-08, Final residual = 4.65646e-09, No Iterations 1
GAMG:  Solving for p, Initial residual = 1.92953e-07, Final residual = 1.90615e-08, No Iterations 1
time step continuity errors : sum local = 3.78128e-08, global = 3.23206e-10, cumulative = -0.0150213
smoothSolver:  Solving for omega, Initial residual = 9.9849e-09, Final residual = 9.9849e-09, No Iterations 0
smoothSolver:  Solving for k, Initial residual = 9.89147e-09, Final residual = 9.89147e-09, No Iterations 0
ExecutionTime = 22.0553 s  ClockTime = 22 s

Time = 2986s

smoothSolver:  Solving for Ux, Initial residual = 8.83182e-09, Final residual = 8.83182e-09, No Iterations 0
smoothSolver:  Solving for Uy, Initial residual = 9.2749e-09, Final residual = 9.2749e-09, No Iterations 0
GAMG:  Solving for p, Initial residual = 1.73958e-07, Final residual = 1.70857e-08, No Iterations 1
time step continuity errors : sum local = 3.38934e-08, global = 1.18528e-10, cumulative = -0.0150213
smoothSolver:  Solving for omega, Initial residual = 9.98485e-09, Final residual = 9.98485e-09, No Iterations 0
smoothSolver:  Solving for k, Initial residual = 9.91471e-09, Final residual = 9.91471e-09, No Iterations 0
ExecutionTime = 22.0623 s  ClockTime = 22 s

Time = 2987s

smoothSolver:  Solving for Ux, Initial residual = 9.45816e-09, Final residual = 9.45816e-09, No Iterations 0
smoothSolver:  Solving for Uy, Initial residual = 1.03796e-08, Final residual = 4.70451e-09, No Iterations 1
GAMG:  Solving for p, Initial residual = 2.3281e-07, Final residual = 2.3342e-08, No Iterations 1
time step continuity errors : sum local = 4.63041e-08, global = 1.49555e-10, cumulative = -0.0150213
smoothSolver:  Solving for omega, Initial residual = 9.98491e-09, Final residual = 9.98491e-09, No Iterations 0
smoothSolver:  Solving for k, Initial residual = 9.89471e-09, Final residual = 9.89471e-09, No Iterations 0
ExecutionTime = 22.0686 s  ClockTime = 22 s

Time = 2988s

smoothSolver:  Solving for Ux, Initial residual = 1.04327e-08, Final residual = 4.78552e-09, No Iterations 1
smoothSolver:  Solving for Uy, Initial residual = 9.08691e-09, Final residual = 9.08691e-09, No Iterations 0
GAMG:  Solving for p, Initial residual = 1.63897e-07, Final residual = 1.9015e-08, No Iterations 1
time step continuity errors : sum local = 3.77205e-08, global = 1.63754e-09, cumulative = -0.0150213
smoothSolver:  Solving for omega, Initial residual = 9.98502e-09, Final residual = 9.98502e-09, No Iterations 0
smoothSolver:  Solving for k, Initial residual = 9.91984e-09, Final residual = 9.91984e-09, No Iterations 0
ExecutionTime = 22.0748 s  ClockTime = 22 s

Time = 2989s

smoothSolver:  Solving for Ux, Initial residual = 8.16318e-09, Final residual = 8.16318e-09, No Iterations 0
smoothSolver:  Solving for Uy, Initial residual = 1.00712e-08, Final residual = 4.4486e-09, No Iterations 1
GAMG:  Solving for p, Initial residual = 1.86453e-07, Final residual = 2.09164e-08, No Iterations 1
time step continuity errors : sum local = 4.14924e-08, global = 1.88503e-09, cumulative = -0.0150213
smoothSolver:  Solving for omega, Initial residual = 9.98508e-09, Final residual = 9.98508e-09, No Iterations 0
smoothSolver:  Solving for k, Initial residual = 9.8786e-09, Final residual = 9.8786e-09, No Iterations 0
ExecutionTime = 22.0809 s  ClockTime = 22 s

Time = 2990s

smoothSolver:  Solving for Ux, Initial residual = 8.49085e-09, Final residual = 8.49085e-09, No Iterations 0
smoothSolver:  Solving for Uy, Initial residual = 8.94192e-09, Final residual = 8.94192e-09, No Iterations 0
GAMG:  Solving for p, Initial residual = 1.63302e-07, Final residual = 1.91375e-08, No Iterations 1
time step continuity errors : sum local = 3.79634e-08, global = 9.62666e-10, cumulative = -0.0150213
smoothSolver:  Solving for omega, Initial residual = 9.98518e-09, Final residual = 9.98518e-09, No Iterations 0
smoothSolver:  Solving for k, Initial residual = 9.87903e-09, Final residual = 9.87903e-09, No Iterations 0
ExecutionTime = 22.0873 s  ClockTime = 22 s

forces forces write:
    sum of forces:
        pressure : (5.60549 245.03 2.78673e-18)
        viscous  : (1.57607 -0.0102357 8.50501e-20)
        porous   : (0 0 0)
    sum of moments:
        pressure : (-5.42665e-16 -2.32511e-17 -32.9981)
        viscous  : (-2.30557e-19 3.19505e-18 -0.0967299)
        porous   : (0 0 0)

Time = 2991s

smoothSolver:  Solving for Ux, Initial residual = 9.02751e-09, Final residual = 9.02751e-09, No Iterations 0
smoothSolver:  Solving for Uy, Initial residual = 1.00118e-08, Final residual = 4.56663e-09, No Iterations 1
GAMG:  Solving for p, Initial residual = 2.21464e-07, Final residual = 2.39268e-08, No Iterations 1
time step continuity errors : sum local = 4.7464e-08, global = -5.1127e-10, cumulative = -0.0150213
smoothSolver:  Solving for omega, Initial residual = 9.98509e-09, Final residual = 9.98509e-09, No Iterations 0
smoothSolver:  Solving for k, Initial residual = 9.86351e-09, Final residual = 9.86351e-09, No Iterations 0
ExecutionTime = 22.0942 s  ClockTime = 22 s

Time = 2992s

smoothSolver:  Solving for Ux, Initial residual = 9.87748e-09, Final residual = 9.87748e-09, No Iterations 0
smoothSolver:  Solving for Uy, Initial residual = 8.60763e-09, Final residual = 8.60763e-09, No Iterations 0
GAMG:  Solving for p, Initial residual = 1.85055e-07, Final residual = 1.95405e-08, No Iterations 1
time step continuity errors : sum local = 3.87628e-08, global = -2.43451e-09, cumulative = -0.0150213
smoothSolver:  Solving for omega, Initial residual = 9.98502e-09, Final residual = 9.98502e-09, No Iterations 0
smoothSolver:  Solving for k, Initial residual = 9.87116e-09, Final residual = 9.87116e-09, No Iterations 0
ExecutionTime = 22.1009 s  ClockTime = 22 s

Time = 2993s

smoothSolver:  Solving for Ux, Initial residual = 1.06949e-08, Final residual = 4.76509e-09, No Iterations 1
smoothSolver:  Solving for Uy, Initial residual = 9.5534e-09, Final residual = 9.5534e-09, No Iterations 0
GAMG:  Solving for p, Initial residual = 2.01249e-07, Final residual = 2.22402e-08, No Iterations 1
time step continuity errors : sum local = 4.41183e-08, global = -4.53289e-09, cumulative = -0.0150214
smoothSolver:  Solving for omega, Initial residual = 9.98479e-09, Final residual = 9.98479e-09, No Iterations 0
smoothSolver:  Solving for k, Initial residual = 9.89038e-09, Final residual = 9.89038e-09, No Iterations 0
ExecutionTime = 22.1074 s  ClockTime = 22 s

Time = 2994s

smoothSolver:  Solving for Ux, Initial residual = 8.10423e-09, Final residual = 8.10423e-09, No Iterations 0
smoothSolver:  Solving for Uy, Initial residual = 1.07047e-08, Final residual = 4.79303e-09, No Iterations 1
GAMG:  Solving for p, Initial residual = 1.88769e-07, Final residual = 1.95921e-08, No Iterations 1
time step continuity errors : sum local = 3.88653e-08, global = -5.13831e-09, cumulative = -0.0150214
smoothSolver:  Solving for omega, Initial residual = 9.98493e-09, Final residual = 9.98493e-09, No Iterations 0
smoothSolver:  Solving for k, Initial residual = 9.8984e-09, Final residual = 9.8984e-09, No Iterations 0
ExecutionTime = 22.114 s  ClockTime = 22 s

Time = 2995s

smoothSolver:  Solving for Ux, Initial residual = 8.29776e-09, Final residual = 8.29776e-09, No Iterations 0
smoothSolver:  Solving for Uy, Initial residual = 9.48114e-09, Final residual = 9.48114e-09, No Iterations 0
GAMG:  Solving for p, Initial residual = 1.5675e-07, Final residual = 1.82242e-08, No Iterations 1
time step continuity errors : sum local = 3.61517e-08, global = -3.9779e-09, cumulative = -0.0150214
smoothSolver:  Solving for omega, Initial residual = 9.98497e-09, Final residual = 9.98497e-09, No Iterations 0
smoothSolver:  Solving for k, Initial residual = 9.90859e-09, Final residual = 9.90859e-09, No Iterations 0
ExecutionTime = 22.1208 s  ClockTime = 22 s

Time = 2996s

smoothSolver:  Solving for Ux, Initial residual = 8.88838e-09, Final residual = 8.88838e-09, No Iterations 0
smoothSolver:  Solving for Uy, Initial residual = 1.0477e-08, Final residual = 4.65384e-09, No Iterations 1
GAMG:  Solving for p, Initial residual = 2.10236e-07, Final residual = 2.39314e-08, No Iterations 1
time step continuity errors : sum local = 4.74732e-08, global = -2.00389e-09, cumulative = -0.0150214
smoothSolver:  Solving for omega, Initial residual = 9.98514e-09, Final residual = 9.98514e-09, No Iterations 0
smoothSolver:  Solving for k, Initial residual = 9.88746e-09, Final residual = 9.88746e-09, No Iterations 0
ExecutionTime = 22.1278 s  ClockTime = 22 s

Time = 2997s

smoothSolver:  Solving for Ux, Initial residual = 9.96972e-09, Final residual = 9.96972e-09, No Iterations 0
smoothSolver:  Solving for Uy, Initial residual = 9.03042e-09, Final residual = 9.03042e-09, No Iterations 0
GAMG:  Solving for p, Initial residual = 1.68143e-07, Final residual = 1.564e-08, No Iterations 1
time step continuity errors : sum local = 3.10254e-08, global = 4.49408e-10, cumulative = -0.0150214
smoothSolver:  Solving for omega, Initial residual = 9.98528e-09, Final residual = 9.98528e-09, No Iterations 0
smoothSolver:  Solving for k, Initial residual = 9.90008e-09, Final residual = 9.90008e-09, No Iterations 0
ExecutionTime = 22.1342 s  ClockTime = 22 s

Time = 2998s

smoothSolver:  Solving for Ux, Initial residual = 1.06102e-08, Final residual = 4.7489e-09, No Iterations 1
smoothSolver:  Solving for Uy, Initial residual = 9.89192e-09, Final residual = 9.89192e-09, No Iterations 0
GAMG:  Solving for p, Initial residual = 2.05529e-07, Final residual = 2.0794e-08, No Iterations 1
time step continuity errors : sum local = 4.12496e-08, global = -1.15533e-10, cumulative = -0.0150214
smoothSolver:  Solving for omega, Initial residual = 9.98522e-09, Final residual = 9.98522e-09, No Iterations 0
smoothSolver:  Solving for k, Initial residual = 9.90536e-09, Final residual = 9.90536e-09, No Iterations 0
ExecutionTime = 22.1407 s  ClockTime = 22 s

Time = 2999s

smoothSolver:  Solving for Ux, Initial residual = 8.03594e-09, Final residual = 8.03594e-09, No Iterations 0
smoothSolver:  Solving for Uy, Initial residual = 1.10633e-08, Final residual = 4.96783e-09, No Iterations 1
GAMG:  Solving for p, Initial residual = 1.7447e-07, Final residual = 1.68935e-08, No Iterations 1
time step continuity errors : sum local = 3.35121e-08, global = 1.71488e-09, cumulative = -0.0150214
smoothSolver:  Solving for omega, Initial residual = 9.98508e-09, Final residual = 9.98508e-09, No Iterations 0
smoothSolver:  Solving for k, Initial residual = 9.87499e-09, Final residual = 9.87499e-09, No Iterations 0
ExecutionTime = 22.1475 s  ClockTime = 22 s

Time = 3000s

smoothSolver:  Solving for Ux, Initial residual = 8.14635e-09, Final residual = 8.14635e-09, No Iterations 0
smoothSolver:  Solving for Uy, Initial residual = 9.63386e-09, Final residual = 9.63386e-09, No Iterations 0
GAMG:  Solving for p, Initial residual = 1.5049e-07, Final residual = 1.46646e-08, No Iterations 1
time step continuity errors : sum local = 2.90904e-08, global = 2.89798e-09, cumulative = -0.0150214
smoothSolver:  Solving for omega, Initial residual = 9.98505e-09, Final residual = 9.98505e-09, No Iterations 0
smoothSolver:  Solving for k, Initial residual = 9.8687e-09, Final residual = 9.8687e-09, No Iterations 0
ExecutionTime = 22.1555 s  ClockTime = 22 s

forces forces write:
    sum of forces:
        pressure : (5.60549 245.03 2.78673e-18)
        viscous  : (1.57607 -0.0102357 8.50501e-20)
        porous   : (0 0 0)
    sum of moments:
        pressure : (-5.42665e-16 -2.32511e-17 -32.9981)
        viscous  : (-2.30557e-19 3.19505e-18 -0.0967299)
        porous   : (0 0 0)

End

